<?xml version="1.0" encoding="UTF-8"?>

<!-- generated on Wed 07 Nov 2018 04:40:30 PM EST by Netedit Version 0.25.0
<?xml version="1.0" encoding="UTF-8"?>

<configuration xmlns:xsi="http://www.w3.org/2001/XMLSchema-instance" xsi:noNamespaceSchemaLocation="http://sumo.dlr.de/xsd/netedit.exeConfiguration.xsd">

    <input>
        <sumo-net-file value="/home/tipech/Projects/Highway/kennedy.net.xml"/>
    </input>

    <output>
        <output-file value="/home/tipech/Projects/Highway/kennedy.net.xml"/>
    </output>

    <processing>
        <no-turnarounds value="true"/>
        <offset.disable-normalization value="true"/>
        <lefthand value="false"/>
        <junctions.corner-detail value="0"/>
    </processing>

</configuration>
-->

<net version="0.25" xmlns:xsi="http://www.w3.org/2001/XMLSchema-instance" xsi:noNamespaceSchemaLocation="http://sumo.dlr.de/xsd/net_file.xsd">

    <location netOffset="-636850.12,-4843224.62" convBoundary="424.62,0.00,3220.88,5652.56" origBoundary="-79.299892,43.728826,-79.260829,43.781353" projParameter="+proj=utm +zone=17 +ellps=WGS84 +datum=WGS84 +units=m +no_defs"/>

    <edge id=":1367240504_0" function="internal">
        <lane id=":1367240504_0_0" index="0" disallow="tram rail_urban rail rail_electric ship" speed="27.78" length="2.69" shape="1375.38,4580.25 1375.23,4584.78"/>
        <lane id=":1367240504_0_1" index="1" disallow="tram rail_urban rail rail_electric ship" speed="27.78" length="2.69" shape="1372.18,4581.08 1372.09,4583.77"/>
        <lane id=":1367240504_0_2" index="2" disallow="tram rail_urban rail rail_electric ship" speed="27.78" length="2.69" shape="1368.99,4581.91 1368.95,4582.75"/>
    </edge>
    <edge id=":1367240508_0" function="internal">
        <lane id=":1367240508_0_0" index="0" allow="private emergency authority army vip passenger hov taxi bus coach delivery truck trailer motorcycle evehicle custom1 custom2" speed="25.00" length="18.27" shape="1265.11,4936.40 1263.76,4942.16 1263.52,4946.81 1263.77,4950.77 1263.89,4954.49"/>
    </edge>
    <edge id=":1367240508_1" function="internal">
        <lane id=":1367240508_1_0" index="0" disallow="tram rail_urban rail rail_electric ship" speed="27.78" length="19.39" shape="1258.83,4934.35 1258.19,4940.02 1259.52,4944.10 1260.90,4948.20 1260.39,4953.91"/>
        <lane id=":1367240508_1_1" index="1" disallow="tram rail_urban rail rail_electric ship" speed="27.78" length="19.39" shape="1255.70,4933.33 1255.04,4939.02 1256.36,4943.12 1257.74,4947.24 1257.23,4952.98"/>
        <lane id=":1367240508_1_2" index="2" disallow="tram rail_urban rail rail_electric ship" speed="27.78" length="19.39" shape="1255.70,4933.33 1254.59,4938.75 1254.79,4942.66 1255.03,4946.57 1254.06,4952.04"/>
        <lane id=":1367240508_1_3" index="3" disallow="tram rail_urban rail rail_electric ship" speed="27.78" length="19.39" shape="1255.70,4933.33 1254.11,4938.56 1253.21,4942.19 1252.35,4945.84 1250.90,4951.11"/>
    </edge>
    <edge id=":1367509310_0" function="internal">
        <lane id=":1367509310_0_0" index="0" disallow="tram rail_urban rail rail_electric ship" speed="19.45" length="4.73" shape="1160.85,5249.38 1159.67,5249.13 1158.70,5249.39 1157.93,5250.17 1157.36,5251.47"/>
    </edge>
    <edge id=":1367509310_1" function="internal">
        <lane id=":1367509310_1_0" index="0" allow="private emergency authority army vip passenger hov taxi bus coach delivery truck trailer motorcycle evehicle custom1 custom2" speed="22.22" length="12.56" shape="1160.85,5249.38 1156.98,5247.82 1154.37,5246.66 1151.83,5245.36 1148.17,5243.38"/>
        <lane id=":1367509310_1_1" index="1" allow="private emergency authority army vip passenger hov taxi bus coach delivery truck trailer motorcycle evehicle custom1 custom2" speed="22.22" length="12.56" shape="1159.06,5245.11 1156.21,5243.93 1154.30,5243.00 1152.45,5241.98 1149.74,5240.48"/>
        <lane id=":1367509310_1_2" index="2" allow="private emergency authority army vip passenger hov taxi bus coach delivery truck trailer motorcycle evehicle custom1 custom2" speed="22.22" length="12.56" shape="1163.25,5243.23 1159.61,5241.76 1157.16,5240.67 1154.77,5239.44 1151.32,5237.58"/>
    </edge>
    <edge id=":1367509310_4" function="internal">
        <lane id=":1367509310_4_0" index="0" disallow="tram rail_urban rail rail_electric ship" speed="16.67" length="15.33" shape="1161.64,5238.12 1159.78,5241.97 1157.82,5244.29 1155.91,5246.63 1154.20,5250.53"/>
        <lane id=":1367509310_4_1" index="1" disallow="tram rail_urban rail rail_electric ship" speed="16.67" length="15.33" shape="1161.64,5238.12 1159.24,5241.97 1156.23,5243.81 1153.28,5245.67 1151.04,5249.58"/>
    </edge>
    <edge id=":1367509310_6" function="internal">
        <lane id=":1367509310_6_0" index="0" allow="private emergency authority army vip passenger hov taxi bus coach delivery truck trailer motorcycle evehicle custom1 custom2" speed="19.45" length="8.21" shape="1158.52,5237.05 1157.09,5239.85 1155.15,5241.36 1152.70,5241.57 1149.74,5240.48"/>
        <lane id=":1367509310_6_1" index="1" allow="private emergency authority army vip passenger hov taxi bus coach delivery truck trailer motorcycle evehicle custom1 custom2" speed="19.45" length="8.21" shape="1155.40,5235.98 1154.73,5237.29 1153.83,5237.99 1152.69,5238.08 1151.32,5237.58"/>
    </edge>
    <edge id=":1367509311_0" function="internal">
        <lane id=":1367509311_0_0" index="0" allow="private emergency authority army vip passenger hov taxi bus coach delivery truck trailer motorcycle evehicle custom1 custom2" speed="19.45" length="8.89" shape="1124.61,5278.89 1125.02,5270.01"/>
    </edge>
    <edge id=":1367509311_1" function="internal">
        <lane id=":1367509311_1_0" index="0" disallow="tram rail_urban rail rail_electric ship" speed="16.67" length="9.62" shape="1127.72,5280.00 1128.64,5270.52"/>
        <lane id=":1367509311_1_1" index="1" disallow="tram rail_urban rail rail_electric ship" speed="16.67" length="9.62" shape="1130.83,5281.10 1131.78,5271.53"/>
        <lane id=":1367509311_1_2" index="2" disallow="tram rail_urban rail rail_electric ship" speed="16.67" length="9.62" shape="1133.94,5282.20 1134.93,5272.53"/>
    </edge>
    <edge id=":1367509312_0" function="internal">
        <lane id=":1367509312_0_0" index="0" disallow="tram rail_urban rail rail_electric ship" speed="16.67" length="3.40" shape="1103.41,5333.80 1105.98,5331.35"/>
        <lane id=":1367509312_0_1" index="1" disallow="tram rail_urban rail rail_electric ship" speed="16.67" length="3.40" shape="1106.56,5334.80 1109.09,5332.46"/>
        <lane id=":1367509312_0_2" index="2" disallow="tram rail_urban rail rail_electric ship" speed="16.67" length="3.40" shape="1109.70,5335.80 1112.20,5333.56"/>
        <lane id=":1367509312_0_3" index="3" disallow="tram rail_urban rail rail_electric ship" speed="16.67" length="3.40" shape="1112.85,5336.81 1115.31,5334.67"/>
    </edge>
    <edge id=":1367509313_0" function="internal">
        <lane id=":1367509313_0_0" index="0" disallow="tram rail_urban rail rail_electric ship" speed="16.67" length="5.78" shape="1133.73,5334.16 1128.09,5335.40"/>
        <lane id=":1367509313_0_1" index="1" disallow="tram rail_urban rail rail_electric ship" speed="16.67" length="5.78" shape="1130.61,5333.10 1124.96,5334.36"/>
    </edge>
    <edge id=":1367509315_0" function="internal">
        <lane id=":1367509315_0_0" index="0" disallow="tram rail_urban rail rail_electric ship" speed="16.67" length="0.10" shape="1124.73,5345.50 1124.73,5345.49"/>
        <lane id=":1367509315_0_1" index="1" disallow="tram rail_urban rail rail_electric ship" speed="16.67" length="0.10" shape="1121.59,5344.46 1121.59,5344.46"/>
    </edge>
    <edge id=":1741679483_0" function="internal">
        <lane id=":1741679483_0_0" index="0" disallow="tram rail_urban rail rail_electric ship" speed="16.67" length="4.10" shape="1151.21,5272.06 1153.41,5276.03"/>
        <lane id=":1741679483_0_1" index="1" disallow="tram rail_urban rail rail_electric ship" speed="16.67" length="4.10" shape="1148.05,5271.11 1150.29,5274.97"/>
        <lane id=":1741679483_0_2" index="2" disallow="tram rail_urban rail rail_electric ship" speed="16.67" length="4.10" shape="1144.89,5270.17 1147.16,5273.91"/>
        <lane id=":1741679483_0_3" index="3" disallow="tram rail_urban rail rail_electric ship" speed="16.67" length="4.10" shape="1144.89,5270.17 1144.03,5272.85"/>
        <lane id=":1741679483_0_4" index="4" disallow="tram rail_urban rail rail_electric ship" speed="16.67" length="4.10" shape="1144.89,5270.17 1140.91,5271.79"/>
    </edge>
    <edge id=":21489777_0" function="internal">
        <lane id=":21489777_0_0" index="0" allow="private emergency authority army vip passenger hov taxi bus coach delivery truck trailer motorcycle evehicle custom1 custom2" speed="27.78" length="0.12" shape="591.83,4856.53 591.88,4856.54"/>
        <lane id=":21489777_0_1" index="1" allow="private emergency authority army vip passenger hov taxi bus coach delivery truck trailer motorcycle evehicle custom1 custom2" speed="27.78" length="0.12" shape="590.77,4859.65 590.77,4859.65"/>
        <lane id=":21489777_0_2" index="2" allow="private emergency authority army vip passenger hov taxi bus coach delivery truck trailer motorcycle evehicle custom1 custom2" speed="27.78" length="0.12" shape="589.60,4862.74 589.76,4862.80"/>
    </edge>
    <edge id=":21489778_0" function="internal">
        <lane id=":21489778_0_0" index="0" allow="private emergency authority army vip passenger hov taxi bus coach delivery truck trailer motorcycle evehicle custom1 custom2" speed="27.78" length="0.10" shape="599.08,4884.75 599.13,4884.77"/>
        <lane id=":21489778_0_1" index="1" allow="private emergency authority army vip passenger hov taxi bus coach delivery truck trailer motorcycle evehicle custom1 custom2" speed="27.78" length="0.10" shape="600.20,4881.65 600.20,4881.65"/>
        <lane id=":21489778_0_2" index="2" allow="private emergency authority army vip passenger hov taxi bus coach delivery truck trailer motorcycle evehicle custom1 custom2" speed="27.78" length="0.10" shape="601.32,4878.55 601.31,4878.54"/>
    </edge>
    <edge id=":21543033_0" function="internal">
        <lane id=":21543033_0_0" index="0" allow="private emergency authority army vip passenger hov taxi bus coach delivery truck trailer motorcycle evehicle custom1 custom2" speed="25.00" length="20.47" shape="1268.50,5068.65 1271.89,5070.52 1275.61,5072.95 1280.27,5075.63 1286.52,5078.24"/>
    </edge>
    <edge id=":21543033_1" function="internal">
        <lane id=":21543033_1_0" index="0" allow="private emergency authority army vip passenger hov taxi bus coach delivery truck trailer motorcycle evehicle custom1 custom2" speed="27.78" length="20.50" shape="1267.10,5071.66 1272.87,5073.61 1276.81,5074.94 1280.76,5076.28 1286.52,5078.24"/>
        <lane id=":21543033_1_1" index="1" allow="private emergency authority army vip passenger hov taxi bus coach delivery truck trailer motorcycle evehicle custom1 custom2" speed="27.78" length="20.50" shape="1266.04,5074.78 1271.80,5076.73 1275.75,5078.07 1279.69,5079.40 1285.45,5081.36"/>
        <lane id=":21543033_1_2" index="2" allow="private emergency authority army vip passenger hov taxi bus coach delivery truck trailer motorcycle evehicle custom1 custom2" speed="27.78" length="20.50" shape="1264.98,5077.90 1270.74,5079.86 1274.68,5081.19 1278.63,5082.53 1284.39,5084.49"/>
    </edge>
    <edge id=":21543038_0" function="internal">
        <lane id=":21543038_0_0" index="0" allow="private emergency authority army vip passenger hov taxi bus coach delivery truck trailer motorcycle evehicle custom1 custom2" speed="27.78" length="0.12" shape="617.65,4845.36 617.70,4845.38"/>
        <lane id=":21543038_0_1" index="1" allow="private emergency authority army vip passenger hov taxi bus coach delivery truck trailer motorcycle evehicle custom1 custom2" speed="27.78" length="0.12" shape="616.57,4848.48 616.57,4848.48"/>
        <lane id=":21543038_0_2" index="2" allow="private emergency authority army vip passenger hov taxi bus coach delivery truck trailer motorcycle evehicle custom1 custom2" speed="27.78" length="0.12" shape="615.38,4851.56 615.54,4851.62"/>
    </edge>
    <edge id=":21543039_0" function="internal">
        <lane id=":21543039_0_0" index="0" allow="private emergency authority army vip passenger hov taxi bus coach delivery truck trailer motorcycle evehicle custom1 custom2" speed="27.78" length="0.10" shape="604.53,4907.68 604.49,4907.66"/>
        <lane id=":21543039_0_1" index="1" allow="private emergency authority army vip passenger hov taxi bus coach delivery truck trailer motorcycle evehicle custom1 custom2" speed="27.78" length="0.10" shape="605.57,4904.55 605.58,4904.55"/>
        <lane id=":21543039_0_2" index="2" allow="private emergency authority army vip passenger hov taxi bus coach delivery truck trailer motorcycle evehicle custom1 custom2" speed="27.78" length="0.10" shape="606.62,4901.42 606.67,4901.44"/>
    </edge>
    <edge id=":2293763784_0" function="internal">
        <lane id=":2293763784_0_0" index="0" disallow="tram rail_urban rail rail_electric ship" speed="27.78" length="4.84" shape="1273.92,4838.61 1270.03,4834.32"/>
        <lane id=":2293763784_0_1" index="1" disallow="tram rail_urban rail rail_electric ship" speed="27.78" length="4.84" shape="1277.09,4839.55 1273.20,4835.26"/>
        <lane id=":2293763784_0_2" index="2" disallow="tram rail_urban rail rail_electric ship" speed="27.78" length="4.84" shape="1277.09,4839.55 1276.36,4836.20"/>
        <lane id=":2293763784_0_3" index="3" disallow="tram rail_urban rail rail_electric ship" speed="27.78" length="4.84" shape="1277.09,4839.55 1279.52,4837.15"/>
        <lane id=":2293763784_0_4" index="4" disallow="tram rail_urban rail rail_electric ship" speed="27.78" length="4.84" shape="1277.09,4839.55 1282.68,4838.09"/>
    </edge>
    <edge id=":2293764148_0" function="internal">
        <lane id=":2293764148_0_0" index="0" disallow="tram rail_urban rail rail_electric ship" speed="27.78" length="3.42" shape="1347.04,4671.83 1347.68,4675.20"/>
        <lane id=":2293764148_0_1" index="1" disallow="tram rail_urban rail rail_electric ship" speed="27.78" length="3.42" shape="1347.04,4671.83 1344.54,4674.18"/>
        <lane id=":2293764148_0_2" index="2" disallow="tram rail_urban rail rail_electric ship" speed="27.78" length="3.42" shape="1343.90,4670.81 1341.41,4673.15"/>
        <lane id=":2293764148_0_3" index="3" disallow="tram rail_urban rail rail_electric ship" speed="27.78" length="3.42" shape="1340.76,4669.80 1338.27,4672.13"/>
    </edge>
    <edge id=":2305844760_0" function="internal">
        <lane id=":2305844760_0_0" index="0" disallow="tram rail_urban rail rail_electric ship" speed="16.67" length="4.17" shape="1088.27,5392.25 1086.04,5388.39"/>
        <lane id=":2305844760_0_1" index="1" disallow="tram rail_urban rail rail_electric ship" speed="16.67" length="4.17" shape="1091.41,5393.25 1089.18,5389.39"/>
        <lane id=":2305844760_0_2" index="2" disallow="tram rail_urban rail rail_electric ship" speed="16.67" length="4.17" shape="1094.56,5394.25 1092.32,5390.39"/>
        <lane id=":2305844760_0_3" index="3" disallow="tram rail_urban rail rail_electric ship" speed="16.67" length="4.17" shape="1094.56,5394.25 1095.47,5391.39"/>
        <lane id=":2305844760_0_4" index="4" disallow="tram rail_urban rail rail_electric ship" speed="16.67" length="4.17" shape="1094.56,5394.25 1098.61,5392.39"/>
    </edge>
    <edge id=":2504181465_0" function="internal">
        <lane id=":2504181465_0_0" index="0" allow="private emergency authority army vip passenger hov taxi bus coach delivery truck trailer motorcycle evehicle custom1 custom2" speed="22.22" length="1.11" shape="1160.99,5249.43 1160.94,5249.41"/>
        <lane id=":2504181465_0_1" index="1" allow="private emergency authority army vip passenger hov taxi bus coach delivery truck trailer motorcycle evehicle custom1 custom2" speed="22.22" length="1.11" shape="1162.14,5246.34 1159.24,5245.19"/>
        <lane id=":2504181465_0_2" index="2" allow="private emergency authority army vip passenger hov taxi bus coach delivery truck trailer motorcycle evehicle custom1 custom2" speed="22.22" length="1.11" shape="1163.38,5243.28 1163.36,5243.27"/>
    </edge>
    <edge id=":257893173_0" function="internal">
        <lane id=":257893173_0_0" index="0" allow="private emergency authority army vip passenger hov taxi bus coach delivery truck trailer motorcycle evehicle custom1 custom2" speed="27.78" length="0.10" shape="648.65,4922.43 648.63,4922.42"/>
        <lane id=":257893173_0_1" index="1" allow="private emergency authority army vip passenger hov taxi bus coach delivery truck trailer motorcycle evehicle custom1 custom2" speed="27.78" length="0.10" shape="649.68,4919.29 649.68,4919.29"/>
        <lane id=":257893173_0_2" index="2" allow="private emergency authority army vip passenger hov taxi bus coach delivery truck trailer motorcycle evehicle custom1 custom2" speed="27.78" length="0.10" shape="650.70,4916.15 650.73,4916.16"/>
    </edge>
    <edge id=":257893174_0" function="internal">
        <lane id=":257893174_0_0" index="0" allow="private emergency authority army vip passenger hov taxi bus coach delivery truck trailer motorcycle evehicle custom1 custom2" speed="27.78" length="0.10" shape="643.88,4900.91 643.84,4900.89"/>
        <lane id=":257893174_0_1" index="1" allow="private emergency authority army vip passenger hov taxi bus coach delivery truck trailer motorcycle evehicle custom1 custom2" speed="27.78" length="0.10" shape="644.96,4897.79 644.96,4897.79"/>
        <lane id=":257893174_0_2" index="2" allow="private emergency authority army vip passenger hov taxi bus coach delivery truck trailer motorcycle evehicle custom1 custom2" speed="27.78" length="0.10" shape="646.03,4894.67 646.08,4894.69"/>
    </edge>
    <edge id=":257893177_0" function="internal">
        <lane id=":257893177_0_0" index="0" allow="private emergency authority army vip passenger hov taxi bus coach delivery truck trailer motorcycle evehicle custom1 custom2" speed="27.78" length="0.10" shape="627.57,4869.68 627.51,4869.66"/>
        <lane id=":257893177_0_1" index="1" allow="private emergency authority army vip passenger hov taxi bus coach delivery truck trailer motorcycle evehicle custom1 custom2" speed="27.78" length="0.10" shape="626.43,4872.78 626.43,4872.78"/>
        <lane id=":257893177_0_2" index="2" allow="private emergency authority army vip passenger hov taxi bus coach delivery truck trailer motorcycle evehicle custom1 custom2" speed="27.78" length="0.10" shape="625.30,4875.88 625.34,4875.90"/>
    </edge>
    <edge id=":257893179_0" function="internal">
        <lane id=":257893179_0_0" index="0" allow="private emergency authority army vip passenger hov taxi bus coach delivery truck trailer motorcycle evehicle custom1 custom2" speed="27.78" length="0.10" shape="578.55,4832.16 578.50,4832.14"/>
        <lane id=":257893179_0_1" index="1" allow="private emergency authority army vip passenger hov taxi bus coach delivery truck trailer motorcycle evehicle custom1 custom2" speed="27.78" length="0.10" shape="577.45,4835.27 577.45,4835.27"/>
        <lane id=":257893179_0_2" index="2" allow="private emergency authority army vip passenger hov taxi bus coach delivery truck trailer motorcycle evehicle custom1 custom2" speed="27.78" length="0.10" shape="576.35,4838.38 576.39,4838.40"/>
    </edge>
    <edge id=":257893241_0" function="internal">
        <lane id=":257893241_0_0" index="0" disallow="tram rail_urban rail rail_electric ship" speed="22.23" length="4.31" shape="1237.07,5032.81 1233.01,5034.50"/>
        <lane id=":257893241_0_1" index="1" disallow="tram rail_urban rail rail_electric ship" speed="22.23" length="4.31" shape="1233.91,5031.87 1229.93,5033.30"/>
    </edge>
    <edge id=":257893245_0" function="internal">
        <lane id=":257893245_0_0" index="0" disallow="tram rail_urban rail rail_electric ship" speed="16.67" length="4.22" shape="1178.57,5126.93 1182.50,5125.60"/>
        <lane id=":257893245_0_1" index="1" disallow="tram rail_urban rail rail_electric ship" speed="16.67" length="4.22" shape="1181.66,5128.10 1185.66,5126.54"/>
    </edge>
    <edge id=":257893270_0" function="internal">
        <lane id=":257893270_0_0" index="0" allow="private emergency authority army vip passenger hov taxi bus coach delivery truck trailer motorcycle evehicle custom1 custom2" speed="27.78" length="0.10" shape="1231.67,5059.61 1231.64,5059.60"/>
        <lane id=":257893270_0_1" index="1" allow="private emergency authority army vip passenger hov taxi bus coach delivery truck trailer motorcycle evehicle custom1 custom2" speed="27.78" length="0.10" shape="1230.58,5062.72 1230.58,5062.72"/>
        <lane id=":257893270_0_2" index="2" allow="private emergency authority army vip passenger hov taxi bus coach delivery truck trailer motorcycle evehicle custom1 custom2" speed="27.78" length="0.10" shape="1229.49,5065.83 1229.52,5065.84"/>
    </edge>
    <edge id=":257893271_0" function="internal">
        <lane id=":257893271_0_0" index="0" allow="private emergency authority army vip passenger hov taxi bus coach delivery truck trailer motorcycle evehicle custom1 custom2" speed="27.78" length="0.10" shape="1198.25,5047.90 1198.25,5047.90"/>
        <lane id=":257893271_0_1" index="1" allow="private emergency authority army vip passenger hov taxi bus coach delivery truck trailer motorcycle evehicle custom1 custom2" speed="27.78" length="0.10" shape="1197.16,5051.01 1197.16,5051.01"/>
        <lane id=":257893271_0_2" index="2" allow="private emergency authority army vip passenger hov taxi bus coach delivery truck trailer motorcycle evehicle custom1 custom2" speed="27.78" length="0.10" shape="1196.09,5054.13 1196.07,5054.12"/>
    </edge>
    <edge id=":257893272_0" function="internal">
        <lane id=":257893272_0_0" index="0" allow="private emergency authority army vip passenger hov taxi bus coach delivery truck trailer motorcycle evehicle custom1 custom2" speed="27.78" length="0.10" shape="1190.81,5065.25 1190.77,5065.24"/>
        <lane id=":257893272_0_1" index="1" allow="private emergency authority army vip passenger hov taxi bus coach delivery truck trailer motorcycle evehicle custom1 custom2" speed="27.78" length="0.10" shape="1189.72,5068.37 1189.72,5068.37"/>
        <lane id=":257893272_0_2" index="2" allow="private emergency authority army vip passenger hov taxi bus coach delivery truck trailer motorcycle evehicle custom1 custom2" speed="27.78" length="0.10" shape="1188.63,5071.49 1188.67,5071.50"/>
    </edge>
    <edge id=":257893274_0" function="internal">
        <lane id=":257893274_0_0" index="0" allow="private emergency authority army vip passenger hov taxi bus coach delivery truck trailer motorcycle evehicle custom1 custom2" speed="27.78" length="0.10" shape="1225.85,5077.03 1225.85,5077.03"/>
        <lane id=":257893274_0_1" index="1" allow="private emergency authority army vip passenger hov taxi bus coach delivery truck trailer motorcycle evehicle custom1 custom2" speed="27.78" length="0.10" shape="1224.79,5080.16 1224.79,5080.16"/>
        <lane id=":257893274_0_2" index="2" allow="private emergency authority army vip passenger hov taxi bus coach delivery truck trailer motorcycle evehicle custom1 custom2" speed="27.78" length="0.10" shape="1223.74,5083.29 1223.73,5083.29"/>
    </edge>
    <edge id=":257893286_0" function="internal">
        <lane id=":257893286_0_0" index="0" allow="private emergency authority army vip passenger hov taxi bus coach delivery truck trailer motorcycle evehicle custom1 custom2" speed="27.78" length="0.10" shape="1186.55,5088.17 1186.61,5088.19"/>
        <lane id=":257893286_0_1" index="1" allow="private emergency authority army vip passenger hov taxi bus coach delivery truck trailer motorcycle evehicle custom1 custom2" speed="27.78" length="0.10" shape="1187.68,5085.07 1187.68,5085.07"/>
        <lane id=":257893286_0_2" index="2" allow="private emergency authority army vip passenger hov taxi bus coach delivery truck trailer motorcycle evehicle custom1 custom2" speed="27.78" length="0.10" shape="1188.81,5081.97 1188.80,5081.97"/>
    </edge>
    <edge id=":257893287_0" function="internal">
        <lane id=":257893287_0_0" index="0" allow="private emergency authority army vip passenger hov taxi bus coach delivery truck trailer motorcycle evehicle custom1 custom2" speed="27.78" length="0.10" shape="1218.92,5099.96 1218.87,5099.95"/>
        <lane id=":257893287_0_1" index="1" allow="private emergency authority army vip passenger hov taxi bus coach delivery truck trailer motorcycle evehicle custom1 custom2" speed="27.78" length="0.10" shape="1219.99,5096.84 1219.99,5096.84"/>
        <lane id=":257893287_0_2" index="2" allow="private emergency authority army vip passenger hov taxi bus coach delivery truck trailer motorcycle evehicle custom1 custom2" speed="27.78" length="0.10" shape="1221.04,5093.71 1221.12,5093.74"/>
    </edge>
    <edge id=":257893288_0" function="internal">
        <lane id=":257893288_0_0" index="0" allow="private emergency authority army vip passenger hov taxi bus coach delivery truck trailer motorcycle evehicle custom1 custom2" speed="27.78" length="0.10" shape="1215.61,5116.08 1215.59,5116.07"/>
        <lane id=":257893288_0_1" index="1" allow="private emergency authority army vip passenger hov taxi bus coach delivery truck trailer motorcycle evehicle custom1 custom2" speed="27.78" length="0.10" shape="1216.68,5112.96 1216.68,5112.96"/>
        <lane id=":257893288_0_2" index="2" allow="private emergency authority army vip passenger hov taxi bus coach delivery truck trailer motorcycle evehicle custom1 custom2" speed="27.78" length="0.10" shape="1217.75,5109.84 1217.77,5109.85"/>
    </edge>
    <edge id=":257893289_0" function="internal">
        <lane id=":257893289_0_0" index="0" allow="private emergency authority army vip passenger hov taxi bus coach delivery truck trailer motorcycle evehicle custom1 custom2" speed="27.78" length="0.47" shape="1181.18,5104.03 1181.03,5103.99"/>
        <lane id=":257893289_0_1" index="1" allow="private emergency authority army vip passenger hov taxi bus coach delivery truck trailer motorcycle evehicle custom1 custom2" speed="27.78" length="0.47" shape="1182.27,5100.92 1181.82,5100.78"/>
        <lane id=":257893289_0_2" index="2" allow="private emergency authority army vip passenger hov taxi bus coach delivery truck trailer motorcycle evehicle custom1 custom2" speed="27.78" length="0.47" shape="1183.36,5097.80 1182.61,5097.58"/>
    </edge>
    <edge id=":257893295_0" function="internal">
        <lane id=":257893295_0_0" index="0" allow="private emergency authority army vip passenger hov taxi bus coach delivery truck trailer motorcycle evehicle custom1 custom2" speed="22.22" length="0.10" shape="1177.52,5109.06 1177.52,5109.06"/>
    </edge>
    <edge id=":257893333_0" function="internal">
        <lane id=":257893333_0_0" index="0" allow="private emergency authority army vip passenger hov taxi bus coach delivery truck trailer motorcycle evehicle custom1 custom2" speed="22.22" length="0.10" shape="1213.28,5123.70 1213.28,5123.70"/>
    </edge>
    <edge id=":257893455_0" function="internal">
        <lane id=":257893455_0_0" index="0" allow="private emergency authority army vip passenger hov taxi bus coach delivery truck trailer motorcycle evehicle custom1 custom2" speed="22.22" length="0.10" shape="1198.58,5040.82 1198.58,5040.82"/>
    </edge>
    <edge id=":3044761901_0" function="internal">
        <lane id=":3044761901_0_0" index="0" disallow="tram rail_urban rail rail_electric ship" speed="16.67" length="0.10" shape="1110.25,5319.34 1110.25,5319.34"/>
        <lane id=":3044761901_0_1" index="1" disallow="tram rail_urban rail rail_electric ship" speed="16.67" length="0.10" shape="1113.36,5320.45 1113.36,5320.45"/>
        <lane id=":3044761901_0_2" index="2" disallow="tram rail_urban rail rail_electric ship" speed="16.67" length="0.10" shape="1116.46,5321.55 1116.46,5321.55"/>
        <lane id=":3044761901_0_3" index="3" disallow="tram rail_urban rail rail_electric ship" speed="16.67" length="0.10" shape="1119.57,5322.66 1119.57,5322.66"/>
    </edge>
    <edge id=":3044761902_0" function="internal">
        <lane id=":3044761902_0_0" index="0" disallow="tram rail_urban rail rail_electric ship" speed="16.67" length="0.10" shape="1135.18,5329.90 1135.18,5329.90"/>
        <lane id=":3044761902_0_1" index="1" disallow="tram rail_urban rail rail_electric ship" speed="16.67" length="0.10" shape="1132.06,5328.84 1132.05,5328.84"/>
        <lane id=":3044761902_0_2" index="2" disallow="tram rail_urban rail rail_electric ship" speed="16.67" length="0.10" shape="1128.93,5327.78 1128.93,5327.78"/>
        <lane id=":3044761902_0_3" index="3" disallow="tram rail_urban rail rail_electric ship" speed="16.67" length="0.10" shape="1125.80,5326.72 1125.81,5326.72"/>
        <lane id=":3044761902_0_4" index="4" disallow="tram rail_urban rail rail_electric ship" speed="16.67" length="0.10" shape="1122.68,5325.66 1122.68,5325.66"/>
    </edge>
    <edge id=":3044761906_0" function="internal">
        <lane id=":3044761906_0_0" index="0" disallow="tram rail_urban rail rail_electric ship" speed="16.67" length="0.10" shape="1098.62,5348.84 1098.62,5348.84"/>
        <lane id=":3044761906_0_1" index="1" disallow="tram rail_urban rail rail_electric ship" speed="16.67" length="0.10" shape="1101.77,5349.84 1101.77,5349.84"/>
        <lane id=":3044761906_0_2" index="2" disallow="tram rail_urban rail rail_electric ship" speed="16.67" length="0.10" shape="1104.91,5350.84 1104.91,5350.84"/>