<?xml version="1.0" encoding="UTF-8"?>
<!-- generated on 2019-01-24 08:01:21.583290 by $Id$ via randomTrips.py
  options: 
-->
<routes xmlns:xsi="http://www.w3.org/2001/XMLSchema-instance" xsi:noNamespaceSchemaLocation="http://sumo.dlr.de/xsd/routes_file.xsd">
    <vType id="veh_passenger" vClass="passenger">
    </vType>
    <trip id="veh0" depart="0.00" departLane="best" from="36783610" to="-195046709#4" type="veh_passenger"/>
    <trip id="veh1" depart="1.22" departLane="best" from="-36805260" to="-36784267#1" type="veh_passenger"/>
    <trip id="veh2" depart="2.45" departLane="best" from="36887560#0" to="-340173402#2" type="veh_passenger"/>
    <trip id="veh3" depart="3.67" departLane="best" from="163036424#0" to="-220248185#1" type="veh_passenger"/>
    <trip id="veh4" depart="4.89" departLane="best" from="-36784351" to="24490339#0" type="veh_passenger"/>
    <trip id="veh5" depart="6.11" departLane="best" from="-23799437#4" to="-36783690#0" type="veh_passenger"/>
    <trip id="veh6" depart="7.34" departLane="best" from="36783626" to="27501717#1" type="veh_passenger"/>
    <trip id="veh7" depart="8.56" departLane="best" from="-36784351" to="36781735#0" type="veh_passenger"/>
    <trip id="veh8" depart="9.78" departLane="best" from="36805302" to="-118670637#1" type="veh_passenger"/>
    <trip id="veh9" depart="11.00" departLane="best" from="36805301" to="36784207#1" type="veh_passenger"/>
    <trip id="veh10" depart="12.23" departLane="best" from="-36885556" to="-36783619" type="veh_passenger"/>
    <trip id="veh11" depart="13.45" departLane="best" from="445927515" to="-36817910#0" type="veh_passenger"/>
    <trip id="veh12" depart="14.67" departLane="best" from="-36783524#1" to="-36783519" type="veh_passenger"/>
    <trip id="veh13" depart="15.89" departLane="best" from="36817910#0" to="36783528" type="veh_passenger"/>
    <trip id="veh14" depart="17.12" departLane="best" from="36805301" to="36784351" type="veh_passenger"/>
    <trip id="veh15" depart="18.34" departLane="best" from="27501716#0" to="4934583#1" type="veh_passenger"/>
    <trip id="veh16" depart="19.56" departLane="best" from="-44705946" to="287421094#1" type="veh_passenger"/>
    <trip id="veh17" depart="20.78" departLane="best" from="36805344#2" to="36783552" type="veh_passenger"/>
    <trip id="veh18" depart="22.01" departLane="best" from="36818826" to="320607700#0" type="veh_passenger"/>
    <trip id="veh19" depart="23.23" departLane="best" from="36784239" to="-24490339#1" type="veh_passenger"/>
    <trip id="veh20" depart="24.45" departLane="best" from="-36785024#2" to="-36805259" type="veh_passenger"/>
    <trip id="veh21" depart="25.67" departLane="best" from="-35346428" to="-36784321#0" type="veh_passenger"/>
    <trip id="veh22" depart="26.90" departLane="best" from="-36783536" to="-36805232" type="veh_passenger"/>
    <trip id="veh23" depart="28.12" departLane="best" from="36783601" to="-36818902#2" type="veh_passenger"/>
    <trip id="veh24" depart="29.34" departLane="best" from="-44524848#2" to="-36784224#0" type="veh_passenger"/>
    <trip id="veh25" depart="30.56" departLane="best" from="-36805236#1" to="439600159#4" type="veh_passenger"/>
    <trip id="veh26" depart="31.79" departLane="best" from="36783624" to="36783536" type="veh_passenger"/>
    <trip id="veh27" depart="33.01" departLane="best" from="-36783663" to="36784351" type="veh_passenger"/>
    <trip id="veh28" depart="34.23" departLane="best" from="-36783652#0" to="-39210636#3" type="veh_passenger"/>
    <trip id="veh29" depart="35.45" departLane="best" from="50887299#1" to="36783592#1" type="veh_passenger"/>
    <trip id="veh30" depart="36.68" departLane="best" from="302947060#0" to="36783672" type="veh_passenger"/>
    <trip id="veh31" depart="37.90" departLane="best" from="36817902#1" to="36805227" type="veh_passenger"/>
    <trip id="veh32" depart="39.12" departLane="best" from="-36785159" to="-220249426#1" type="veh_passenger"/>
    <trip id="veh33" depart="40.34" departLane="best" from="-36818839#3" to="-36805211" type="veh_passenger"/>
    <trip id="veh34" depart="41.57" departLane="best" from="-36784291" to="439600163#1" type="veh_passenger"/>
    <trip id="veh35" depart="42.79" departLane="best" from="36818900" to="-36805309" type="veh_passenger"/>
    <trip id="veh36" depart="44.01" departLane="best" from="36783633#0" to="-439600159#0" type="veh_passenger"/>
    <trip id="veh37" depart="45.23" departLane="best" from="39210613" to="195046709#7" type="veh_passenger"/>
    <trip id="veh38" depart="46.46" departLane="best" from="-36805235#0" to="-36785159" type="veh_passenger"/>
    <trip id="veh39" depart="47.68" departLane="best" from="319807282#0" to="-36791855" type="veh_passenger"/>
    <trip id="veh40" depart="48.90" departLane="best" from="36783514#0" to="379820529#0" type="veh_passenger"/>
    <trip id="veh41" depart="50.12" departLane="best" from="-5379221#1" to="-36784249" type="veh_passenger"/>
    <trip id="veh42" depart="51.35" departLane="best" from="61108908#2" to="24490356#3" type="veh_passenger"/>
    <trip id="veh43" depart="52.57" departLane="best" from="-36783522#1" to="-24490356#1" type="veh_passenger"/>
    <trip id="veh44" depart="53.79" departLane="best" from="-36783552" to="36783564#2" type="veh_passenger"/>
    <trip id="veh45" depart="55.01" departLane="best" from="36805259" to="-50888397#3" type="veh_passenger"/>
    <trip id="veh46" depart="56.24" departLane="best" from="-297995583#4" to="-39210638" type="veh_passenger"/>
    <trip id="veh47" depart="57.46" departLane="best" from="61108908#0" to="25542534#0" type="veh_passenger"/>
    <trip id="veh48" depart="58.68" departLane="best" from="448500604#2" to="36818902#2" type="veh_passenger"/>
    <trip id="veh49" depart="59.90" departLane="best" from="-190536420#4" to="36784297" type="veh_passenger"/>
    <trip id="veh50" depart="61.13" departLane="best" from="36783676" to="27121506#1" type="veh_passenger"/>
    <trip id="veh51" depart="62.35" departLane="best" from="-36805236#1" to="36783593" type="veh_passenger"/>
    <trip id="veh52" depart="63.57" departLane="best" from="-36783555" to="122317141" type="veh_passenger"/>
    <trip id="veh53" depart="64.80" departLane="best" from="220190751" to="446037867" type="veh_passenger"/>
    <trip id="veh54" depart="66.02" departLane="best" from="36818899" to="-36805199" type="veh_passenger"/>
    <trip id="veh55" depart="67.24" departLane="best" from="24490356#4" to="-36783654" type="veh_passenger"/>
    <trip id="veh56" depart="68.46" departLane="best" from="39210608#2" to="36885535#2" type="veh_passenger"/>
    <trip id="veh57" depart="69.69" departLane="best" from="-36805344#3" to="36783592#0" type="veh_passenger"/>
    <trip id="veh58" depart="70.91" departLane="best" from="36783550" to="-36783613" type="veh_passenger"/>
    <trip id="veh59" depart="72.13" departLane="best" from="36791855" to="27121820#0" type="veh_passenger"/>
    <trip id="veh60" depart="73.35" departLane="best" from="36805232" to="25542542#0" type="veh_passenger"/>
    <trip id="veh61" depart="74.58" departLane="best" from="-110478685#0" to="-36805320" type="veh_passenger"/>
    <trip id="veh62" depart="75.80" departLane="best" from="-205717609#1" to="436981108#2" type="veh_passenger"/>
    <trip id="veh63" depart="77.02" departLane="best" from="36818902#1" to="36817907" type="veh_passenger"/>
    <trip id="veh65" depart="79.47" departLane="best" from="36818902#0" to="44524848#2" type="veh_passenger"/>
    <trip id="veh66" depart="80.69" departLane="best" from="-36783514#1" to="23799437#1" type="veh_passenger"/>
    <trip id="veh67" depart="81.91" departLane="best" from="-31116045" to="36790143#0" type="veh_passenger"/>
    <trip id="veh68" depart="83.13" departLane="best" from="36805202#1" to="-36783563#0" type="veh_passenger"/>
    <trip id="veh69" depart="84.36" departLane="best" from="23128613" to="282954484" type="veh_passenger"/>
    <trip id="veh70" depart="85.58" departLane="best" from="-36805235#0" to="36885535#2" type="veh_passenger"/>
    <trip id="veh71" depart="86.80" departLane="best" from="186587456" to="-36784227#0" type="veh_passenger"/>
    <trip id="veh72" depart="88.02" departLane="best" from="275136311#1" to="36784351" type="veh_passenger"/>
    <trip id="veh73" depart="89.25" departLane="best" from="-36784235" to="-36805303" type="veh_passenger"/>
    <trip id="veh74" depart="90.47" departLane="best" from="61108908#0" to="36783614" type="veh_passenger"/>
    <trip id="veh75" depart="91.69" departLane="best" from="195046709#0" to="25022512#0" type="veh_passenger"/>
    <trip id="veh76" depart="92.91" departLane="best" from="-36783565#0" to="-36784275" type="veh_passenger"/>
    <trip id="veh77" depart="94.14" departLane="best" from="-36885556" to="35352289#0" type="veh_passenger"/>
    <trip id="veh78" depart="95.36" departLane="best" from="-36787307#0" to="-36784249" type="veh_passenger"/>
    <trip id="veh79" depart="96.58" departLane="best" from="-31116045" to="36783567#1" type="veh_passenger"/>
    <trip id="veh80" depart="97.80" departLane="best" from="-36785159" to="39210613" type="veh_passenger"/>
    <trip id="veh82" depart="100.25" departLane="best" from="-36789581#1" to="36783646" type="veh_passenger"/>
    <trip id="veh83" depart="101.47" departLane="best" from="-36784317" to="-36783564#5" type="veh_passenger"/>
    <trip id="veh84" depart="102.69" departLane="best" from="436981106" to="31116045" type="veh_passenger"/>
    <trip id="veh85" depart="103.92" departLane="best" from="23128613" to="36805235#0" type="veh_passenger"/>
    <trip id="veh86" depart="105.14" departLane="best" from="36805301" to="-36783671" type="veh_passenger"/>
    <trip id="veh87" depart="106.36" departLane="best" from="-36783530" to="110478685#3" type="veh_passenger"/>
    <trip id="veh88" depart="107.58" departLane="best" from="186587456" to="220190752" type="veh_passenger"/>
    <trip id="veh89" depart="108.81" departLane="best" from="36784857#0" to="36783655#1" type="veh_passenger"/>
    <trip id="veh90" depart="110.03" departLane="best" from="4934659#8" to="-36783521#1" type="veh_passenger"/>
    <trip id="veh92" depart="112.47" departLane="best" from="36818826" to="-36787307#2" type="veh_passenger"/>
    <trip id="veh93" depart="113.70" departLane="best" from="-36784207#1" to="190536420#1" type="veh_passenger"/>
    <trip id="veh94" depart="114.92" departLane="best" from="163036424#0" to="-36805234" type="veh_passenger"/>
    <trip id="veh95" depart="116.14" departLane="best" from="-36805210" to="42140524#0" type="veh_passenger"/>
    <trip id="veh96" depart="117.36" departLane="best" from="195046709#8" to="36818902#3" type="veh_passenger"/>
    <trip id="veh97" depart="118.59" departLane="best" from="297995581" to="-24885285#0" type="veh_passenger"/>
    <trip id="veh99" depart="121.03" departLane="best" from="448500603#0" to="436981106" type="veh_passenger"/>
    <trip id="veh100" depart="122.26" departLane="best" from="36817910#1" to="-36783632" type="veh_passenger"/>
    <trip id="veh102" depart="124.70" departLane="best" from="-61108908#3" to="-25022512#0" type="veh_passenger"/>
    <trip id="veh103" depart="125.92" departLane="best" from="-447152117#0" to="50887296#0" type="veh_passenger"/>
    <trip id="veh104" depart="127.15" departLane="best" from="-36805235#0" to="36805234" type="veh_passenger"/>
    <trip id="veh105" depart="128.37" departLane="best" from="220190753" to="-585481281" type="veh_passenger"/>
    <trip id="veh106" depart="129.59" departLane="best" from="445927515" to="5379221#1" type="veh_passenger"/>
    <trip id="veh107" depart="130.81" departLane="best" from="300391152" to="36784291" type="veh_passenger"/>
    <trip id="veh108" depart="132.04" departLane="best" from="-36783636" to="-36805270" type="veh_passenger"/>
    <trip id="veh109" depart="133.26" departLane="best" from="448500603#0" to="33725369#1" type="veh_passenger"/>
    <trip id="veh110" depart="134.48" departLane="best" from="287421094#0" to="36787303#0" type="veh_passenger"/>
    <trip id="veh111" depart="135.70" departLane="best" from="24885285#0" to="36818842#0" type="veh_passenger"/>
    <trip id="veh112" depart="136.93" departLane="best" from="-36783640" to="447152121#1" type="veh_passenger"/>
    <trip id="veh113" depart="138.15" departLane="best" from="-35346428" to="-36783663" type="veh_passenger"/>
    <trip id="veh114" depart="139.37" departLane="best" from="36783529#0" to="36783656" type="veh_passenger"/>
    <trip id="veh115" depart="140.59" departLane="best" from="-36789580#4" to="-36783549" type="veh_passenger"/>
    <trip id="veh116" depart="141.82" departLane="best" from="36887556#0" to="-36785025" type="veh_passenger"/>
    <trip id="veh117" depart="143.04" departLane="best" from="135953624#0" to="35348781" type="veh_passenger"/>
    <trip id="veh118" depart="144.26" departLane="best" from="25542534#0" to="439600159#1" type="veh_passenger"/>
    <trip id="veh119" depart="145.48" departLane="best" from="-36784251" to="36784281" type="veh_passenger"/>
    <trip id="veh120" depart="146.71" departLane="best" from="-36789581#1" to="-439600159#0" type="veh_passenger"/>
    <trip id="veh121" depart="147.93" departLane="best" from="36783658" to="-36805276#1" type="veh_passenger"/>
    <trip id="veh122" depart="149.15" departLane="best" from="-36818839#4" to="36787307#5" type="veh_passenger"/>
    <trip id="veh123" depart="150.37" departLane="best" from="-320464907#2" to="195046709#6" type="veh_passenger"/>
    <trip id="veh124" depart="151.60" departLane="best" from="86823934#0" to="5379221#1" type="veh_passenger"/>
    <trip id="veh125" depart="152.82" departLane="best" from="-320464908#1" to="-36784230#0" type="veh_passenger"/>
    <trip id="veh126" depart="154.04" departLane="best" from="-36805235#0" to="439600158#1" type="veh_passenger"/>
    <trip id="veh127" depart="155.26" departLane="best" from="36818904#0" to="36887558#0" type="veh_passenger"/>
    <trip id="veh128" depart="156.49" departLane="best" from="-44524848#2" to="-36783622#0" type="veh_passenger"/>
    <trip id="veh129" depart="157.71" departLane="best" from="36817882#0" to="36784224#1" type="veh_passenger"/>
    <trip id="veh130" depart="158.93" departLane="best" from="36783555" to="50887299#2" type="veh_passenger"/>
    <trip id="veh131" depart="160.15" departLane="best" from="36783631" to="-128944702" type="veh_passenger"/>
    <trip id="veh132" depart="161.38" departLane="best" from="36783645" to="439600159#5" type="veh_passenger"/>
    <trip id="veh133" depart="162.60" departLane="best" from="-36783545" to="291406211#1" type="veh_passenger"/>
    <trip id="veh134" depart="163.82" departLane="best" from="-36805245" to="36783529#1" type="veh_passenger"/>
    <trip id="veh135" depart="165.04" departLane="best" from="36783598" to="-36805202#0" type="veh_passenger"/>
    <trip id="veh137" depart="167.49" departLane="best" from="36817906" to="-36783511" type="veh_passenger"/>
    <trip id="veh138" depart="168.71" departLane="best" from="186587456" to="-36805229" type="veh_passenger"/>
    <trip id="veh139" depart="169.93" departLane="best" from="-110478685#5" to="36805214#0" type="veh_passenger"/>
    <trip id="veh140" depart="171.16" departLane="best" from="36783605" to="-36791855" type="veh_passenger"/>
    <trip id="veh141" depart="172.38" departLane="best" from="190536420#0" to="-135953624#4" type="veh_passenger"/>
    <trip id="veh142" depart="173.60" departLane="best" from="-320607700#0" to="369781400" type="veh_passenger"/>
    <trip id="veh143" depart="174.82" departLane="best" from="377674259#0" to="275136311#1" type="veh_passenger"/>
    <trip id="veh144" depart="176.05" departLane="best" from="36817883#0" to="35345817#0" type="veh_passenger"/>
    <trip id="veh145" depart="177.27" departLane="best" from="-36783625" to="-36783562#1" type="veh_passenger"/>
    <trip id="veh147" depart="179.71" departLane="best" from="36805268" to="36818902#2" type="veh_passenger"/>
    <trip id="veh148" depart="180.94" departLane="best" from="369781401#0" to="-36784224#1" type="veh_passenger"/>
    <trip id="veh149" depart="182.16" departLane="best" from="-36805210" to="-36783526" type="veh_passenger"/>
    <trip id="veh150" depart="183.38" departLane="best" from="36805235#0" to="37192026" type="veh_passenger"/>
    <trip id="veh151" depart="184.61" departLane="best" from="110478685#5" to="36783555" type="veh_passenger"/>
    <trip id="veh152" depart="185.83" departLane="best" from="-36783636" to="436981108#3" type="veh_passenger"/>
    <trip id="veh153" depart="187.05" departLane="best" from="36818830#1" to="4934586" type="veh_passenger"/>
    <trip id="veh154" depart="188.27" departLane="best" from="36805303" to="36887912" type="veh_passenger"/>
    <trip id="veh155" depart="189.50" departLane="best" from="-23799437#1" to="36785159" type="veh_passenger"/>
    <trip id="veh156" depart="190.72" departLane="best" from="-36885535#0" to="436981108#5" type="veh_passenger"/>
    <trip id="veh157" depart="191.94" departLane="best" from="36805286" to="36818904#3" type="veh_passenger"/>
    <trip id="veh158" depart="193.16" departLane="best" from="36805303" to="-36805207" type="veh_passenger"/>
    <trip id="veh159" depart="194.39" departLane="best" from="36805252" to="-36783533" type="veh_passenger"/>
    <trip id="veh160" depart="195.61" departLane="best" from="36818845" to="36818900" type="veh_passenger"/>
    <trip id="veh161" depart="196.83" departLane="best" from="-36784352#1" to="36817875" type="veh_passenger"/>
    <trip id="veh162" depart="198.05" departLane="best" from="220249421#0" to="-36805295" type="veh_passenger"/>
    <trip id="veh163" depart="199.28" departLane="best" from="36805267" to="-36784276" type="veh_passenger"/>
    <trip id="veh164" depart="200.50" departLane="best" from="-220249426#2" to="-36783676" type="veh_passenger"/>
    <trip id="veh165" depart="201.72" departLane="best" from="448491824#0" to="-36805235#0" type="veh_passenger"/>
    <trip id="veh166" depart="202.94" departLane="best" from="36783614" to="-444618382" type="veh_passenger"/>
    <trip id="veh167" depart="204.17" departLane="best" from="4934659#1" to="27121504#2" type="veh_passenger"/>
    <trip id="veh168" depart="205.39" departLane="best" from="436981108#4" to="-36783545" type="veh_passenger"/>
    <trip id="veh169" depart="206.61" departLane="best" from="448500604#0" to="-36783654" type="veh_passenger"/>
    <trip id="veh170" depart="207.83" departLane="best" from="447152117#2" to="-36805204" type="veh_passenger"/>
    <trip id="veh171" depart="209.06" departLane="best" from="-36783550" to="122317141" type="veh_passenger"/>
    <trip id="veh172" depart="210.28" departLane="best" from="36784375" to="-36805303" type="veh_passenger"/>
    <trip id="veh173" depart="211.50" departLane="best" from="36783545" to="24501833#0" type="veh_passenger"/>
    <trip id="veh174" depart="212.72" departLane="best" from="-466466372" to="320607699#1" type="veh_passenger"/>
    <trip id="veh175" depart="213.95" departLane="best" from="-36805219" to="36784232" type="veh_passenger"/>
    <trip id="veh176" depart="215.17" departLane="best" from="-110478685#2" to="433827566" type="veh_passenger"/>
    <trip id="veh177" depart="216.39" departLane="best" from="27501717#0" to="36784291" type="veh_passenger"/>
    <trip id="veh178" depart="217.61" departLane="best" from="36787101#0" to="36783650#0" type="veh_passenger"/>
    <trip id="veh179" depart="218.84" departLane="best" from="-439600159#5" to="-25542542#0" type="veh_passenger"/>
    <trip id="veh180" depart="220.06" departLane="best" from="36783649" to="-36805344#1" type="veh_passenger"/>
    <trip id="veh181" depart="221.28" departLane="best" from="36784306" to="-36805282" type="veh_passenger"/>
    <trip id="veh183" depart="223.73" departLane="best" from="-89185048" to="-36805268" type="veh_passenger"/>
    <trip id="veh184" depart="224.95" departLane="best" from="-36783588" to="-50887299#2" type="veh_passenger"/>
    <trip id="veh185" depart="226.17" departLane="best" from="436981108#5" to="36783660" type="veh_passenger"/>
    <trip id="veh186" depart="227.39" departLane="best" from="377674259#0" to="36783546" type="veh_passenger"/>
    <trip id="veh187" depart="228.62" departLane="best" from="-36817902#1" to="27552160" type="veh_passenger"/>
    <trip id="veh188" depart="229.84" departLane="best" from="-110478685#0" to="-36805248" type="veh_passenger"/>
    <trip id="veh189" depart="231.06" departLane="best" from="190536420#2" to="340173402#1" type="veh_passenger"/>
    <trip id="veh190" depart="232.28" departLane="best" from="36783632" to="205717854#0" type="veh_passenger"/>
    <trip id="veh191" depart="233.51" departLane="best" from="195046709#6" to="-36784230#1" type="veh_passenger"/>
    <trip id="veh192" depart="234.73" departLane="best" from="23128613" to="39210602#0" type="veh_passenger"/>
    <trip id="veh193" depart="235.95" departLane="best" from="36805268" to="-36783636" type="veh_passenger"/>
    <trip id="veh194" depart="237.17" departLane="best" from="-36783514#0" to="24885285#1" type="veh_passenger"/>
    <trip id="veh195" depart="238.40" departLane="best" from="36783594" to="-36817907" type="veh_passenger"/>
    <trip id="veh196" depart="239.62" departLane="best" from="36805314#0" to="36787307#2" type="veh_passenger"/>
    <trip id="veh197" depart="240.84" departLane="best" from="36783661" to="-36784275" type="veh_passenger"/>
    <trip id="veh198" depart="242.06" departLane="best" from="-36784230#1" to="-195046709#3" type="veh_passenger"/>
    <trip id="veh199" depart="243.29" departLane="best" from="-36790143#7" to="220249426#0" type="veh_passenger"/>
    <trip id="veh201" depart="245.73" departLane="best" from="123890404" to="36783565#0" type="veh_passenger"/>
    <trip id="veh202" depart="246.96" departLane="best" from="24490336#3" to="-36784857#4" type="veh_passenger"/>
    <trip id="veh203" depart="248.18" departLane="best" from="36783633#1" to="-118670637#1" type="veh_passenger"/>
    <trip id="veh204" depart="249.40" departLane="best" from="36787663#0" to="36805210" type="veh_passenger"/>
    <trip id="veh205" depart="250.62" departLane="best" from="-36783545" to="-61108908#1" type="veh_passenger"/>
    <trip id="veh206" depart="251.85" departLane="best" from="-36783672" to="447152117#0" type="veh_passenger"/>
    <trip id="veh207" depart="253.07" departLane="best" from="25366220#0" to="-24501833#0" type="veh_passenger"/>
    <trip id="veh208" depart="254.29" departLane="best" from="-36805207" to="36818839#1" type="veh_passenger"/>
    <trip id="veh209" depart="255.51" departLane="best" from="220190753" to="36805282" type="veh_passenger"/>
    <trip id="veh210" depart="256.74" departLane="best" from="36783655#0" to="50888397#0" type="veh_passenger"/>
    <trip id="veh211" depart="257.96" departLane="best" from="36783529#0" to="44525299#0" type="veh_passenger"/>
    <trip id="veh212" depart="259.18" departLane="best" from="36887558#0" to="36783541" type="veh_passenger"/>
    <trip id="veh213" depart="260.40" departLane="best" from="36784306" to="24490336#4" type="veh_passenger"/>
    <trip id="veh214" depart="261.63" departLane="best" from="36805344#4" to="27552160" type="veh_passenger"/>
    <trip id="veh216" depart="264.07" departLane="best" from="23128613" to="-36790143#7" type="veh_passenger"/>
    <trip id="veh217" depart="265.29" departLane="best" from="-36805202#2" to="36783591#0" type="veh_passenger"/>
    <trip id="veh218" depart="266.52" departLane="best" from="36805202#1" to="25022563#7" type="veh_passenger"/>
    <trip id="veh219" depart="267.74" departLane="best" from="36783586" to="-36805229" type="veh_passenger"/>
    <trip id="veh220" depart="268.96" departLane="best" from="-340173402#1" to="-36805244" type="veh_passenger"/>
    <trip id="veh221" depart="270.18" departLane="best" from="-36805244" to="-36805314#0" type="veh_passenger"/>
    <trip id="veh222" depart="271.41" departLane="best" from="282954483" to="-36783586" type="veh_passenger"/>
    <trip id="veh223" depart="272.63" departLane="best" from="-36787307#2" to="36783691#1" type="veh_passenger"/>
    <trip id="veh224" depart="273.85" departLane="best" from="36784247" to="-25022809" type="veh_passenger"/>
    <trip id="veh225" depart="275.07" departLane="best" from="118670637#0" to="27501716#0" type="veh_passenger"/>
    <trip id="veh226" depart="276.30" departLane="best" from="123890404" to="-36784207#0" type="veh_passenger"/>
    <trip id="veh227" depart="277.52" departLane="best" from="135953624#3" to="39210611#0" type="veh_passenger"/>
    <trip id="veh228" depart="278.74" departLane="best" from="36783514#0" to="36784194#0" type="veh_passenger"/>
    <trip id="veh230" depart="281.19" departLane="best" from="-447152117#2" to="-118670637#1" type="veh_passenger"/>
    <trip id="veh231" depart="282.41" departLane="best" from="-42165045#1" to="36787663#1" type="veh_passenger"/>
    <trip id="veh233" depart="284.85" departLane="best" from="135953624#0" to="36787302#0" type="veh_passenger"/>
    <trip id="veh234" depart="286.08" departLane="best" from="291406212#3" to="36783528" type="veh_passenger"/>
    <trip id="veh235" depart="287.30" departLane="best" from="195046706#0" to="-205717609#1" type="veh_passenger"/>
    <trip id="veh236" depart="288.52" departLane="best" from="-36885535#2" to="36783663" type="veh_passenger"/>
    <trip id="veh237" depart="289.74" departLane="best" from="110478685#2" to="-36783630" type="veh_passenger"/>
    <trip id="veh238" depart="290.97" departLane="best" from="221610909" to="-36783562#1" type="veh_passenger"/>
    <trip id="veh239" depart="292.19" departLane="best" from="36783567#1" to="-195046709#7" type="veh_passenger"/>
    <trip id="veh240" depart="293.41" departLane="best" from="-50887299#1" to="297995583#6" type="veh_passenger"/>
    <trip id="veh241" depart="294.63" departLane="best" from="-23799437#5" to="36783598" type="veh_passenger"/>
    <trip id="veh242" depart="295.86" departLane="best" from="-36783601" to="205717609#0" type="veh_passenger"/>
    <trip id="veh243" depart="297.08" departLane="best" from="-25366320#0" to="-39210636#3" type="veh_passenger"/>
    <trip id="veh244" depart="298.30" departLane="best" from="-36784291" to="-36805344#0" type="veh_passenger"/>
    <trip id="veh245" depart="299.52" departLane="best" from="36790143#8" to="-39210636#3" type="veh_passenger"/>
    <trip id="veh246" depart="300.75" departLane="best" from="36787663#2" to="36817908" type="veh_passenger"/>
    <trip id="veh247" depart="301.97" departLane="best" from="-36805215#1" to="-320607700#1" type="veh_passenger"/>
    <trip id="veh248" depart="303.19" departLane="best" from="-205717609#1" to="27121820#0" type="veh_passenger"/>
    <trip id="veh249" depart="304.42" departLane="best" from="89185048" to="-36818827" type="veh_passenger"/>
    <trip id="veh250" depart="305.64" departLane="best" from="36783626" to="36805230" type="veh_passenger"/>
    <trip id="veh251" depart="306.86" departLane="best" from="36783626" to="36787665#0" type="veh_passenger"/>
    <trip id="veh252" depart="308.08" departLane="best" from="439600161#0" to="-36783690#0" type="veh_passenger"/>
    <trip id="veh253" depart="309.31" departLane="best" from="-220248185#1" to="-36783613" type="veh_passenger"/>
    <trip id="veh254" depart="310.53" departLane="best" from="320464970#0" to="-36784247" type="veh_passenger"/>
    <trip id="veh255" depart="311.75" departLane="best" from="36784225#1" to="36805202#1" type="veh_passenger"/>
    <trip id="veh256" depart="312.97" departLane="best" from="-36783657#0" to="36783533" type="veh_passenger"/>
    <trip id="veh257" depart="314.20" departLane="best" from="36787306#0" to="-36783543" type="veh_passenger"/>
    <trip id="veh258" depart="315.42" departLane="best" from="36805314#1" to="448491825#0" type="veh_passenger"/>
    <trip id="veh259" depart="316.64" departLane="best" from="-36783549" to="-195046709#5" type="veh_passenger"/>
    <trip id="veh260" depart="317.86" departLane="best" from="-36818829" to="36783660" type="veh_passenger"/>
    <trip id="veh261" depart="319.09" departLane="best" from="445946141" to="-439600159#1" type="veh_passenger"/>
    <trip id="veh262" depart="320.31" departLane="best" from="36784276" to="-297995583#4" type="veh_passenger"/>
    <trip id="veh263" depart="321.53" departLane="best" from="36784194#1" to="36783564#1" type="veh_passenger"/>
    <trip id="veh264" depart="322.75" departLane="best" from="-36783537" to="36805215#1" type="veh_passenger"/>
    <trip id="veh266" depart="325.20" departLane="best" from="-36783565#0" to="4934670#1" type="veh_passenger"/>
    <trip id="veh268" depart="327.64" departLane="best" from="190536420#0" to="-36818907#2" type="veh_passenger"/>
    <trip id="veh271" depart="331.31" departLane="best" from="-36783543" to="447152121#1" type="veh_passenger"/>
    <trip id="veh272" depart="332.53" departLane="best" from="36783601" to="36817903" type="veh_passenger"/>
    <trip id="veh273" depart="333.76" departLane="best" from="36784249" to="122317141" type="veh_passenger"/>
    <trip id="veh274" depart="334.98" departLane="best" from="36785024#0" to="448491826#0" type="veh_passenger"/>
    <trip id="veh275" depart="336.20" departLane="best" from="27501717#0" to="23128614" type="veh_passenger"/>
    <trip id="veh276" depart="337.42" departLane="best" from="195046706#0" to="36784358#0" type="veh_passenger"/>
    <trip id="veh277" depart="338.65" departLane="best" from="-36805239#0" to="36818841" type="veh_passenger"/>
    <trip id="veh278" depart="339.87" departLane="best" from="36805344#4" to="-340173402#2" type="veh_passenger"/>
    <trip id="veh279" depart="341.09" departLane="best" from="36818904#1" to="-36784857#3" type="veh_passenger"/>
    <trip id="veh280" depart="342.31" departLane="best" from="220249425#0" to="36783538" type="veh_passenger"/>