<?xml version="1.0" encoding="UTF-8"?>

<!-- generated on 01/24/19 08:01:21 by Eclipse SUMO duarouter Version 1.0.1
<configuration xmlns:xsi="http://www.w3.org/2001/XMLSchema-instance" xsi:noNamespaceSchemaLocation="http://sumo.dlr.de/xsd/duarouterConfiguration.xsd">

    <input>
        <net-file value="osm.net.xml"/>
        <route-files value="osm.passenger.trips.xml"/>
    </input>

    <output>
        <output-file value="osm.passenger.rou.xml"/>
        <alternatives-output value="osm.passenger.rou.alt.xml"/>
    </output>

    <time>
        <begin value="0"/>
        <end value="1200.0"/>
    </time>

    <report>
        <no-warnings value="true"/>
        <ignore-errors value="true"/>
        <no-step-log value="true"/>
    </report>

</configuration>
-->

<routes xmlns:xsi="http://www.w3.org/2001/XMLSchema-instance" xsi:noNamespaceSchemaLocation="http://sumo.dlr.de/xsd/routes_file.xsd">
    <vType id="veh_passenger" vClass="passenger"/>
    <vehicle id="veh0" type="veh_passenger" depart="0.00" departLane="best">
        <route edges="36783610 36783638 36783621 36783515#0 36783691#0 36783691#1 36783690#0 -36783693#0 -36789580#5 -36789580#4 -36789580#1 -36787307#6 -36787307#2 -36787307#1 -36787307#0 36787306#0 36787103#0 195058445 -110478685#5 -110478685#4 -110478685#3 -110478685#2 110478685#0 -195046709#8 -195046709#7 -195046709#6 -195046709#5 -195046709#4"/>
    </vehicle>
    <vehicle id="veh1" type="veh_passenger" depart="1.22" departLane="best">
        <route edges="-36805260 36805204 36805263 -36805210 -36805256 36805222#0 36817883#0 -36817910#1 -36817910#0 36817877#0 36817878#0 -163036424#1 -163036424#0 -163036423 -36817908 36817905 -36817907 36817903 -39210639#1 -39210639#0 39210629#0 35351256#0 35349336 39210613 319807282#0 39210630#0 -448500603#1 -448500603#0 44705947#0 44705947#2 -44705946 -36787663#2 -36787663#1 -36787663#0 36787090#0 36787103#0 36787103#2 36787101#0 36787101#1 36787100 36787099 205717851#0 36787091#0 -481952455 -433827566 -36784317 36784267#0 36784267#1 -36784267#1"/>
    </vehicle>
    <vehicle id="veh2" type="veh_passenger" depart="2.45" departLane="best">
        <route edges="36887560#0 36887557#0 -275136311#1 -275136311#0 -39210638 39210616#0 39210610#0 -445946141 -485841646 -379820537 -379820529#1 -320464907#2 -320464907#0 320464908#0 -340173402#6 -340173402#4 -340173402#2"/>
    </vehicle>
    <vehicle id="veh3" type="veh_passenger" depart="3.67" departLane="best">
        <route edges="163036424#0 -163036424#0 -163036423 -36817908 36817905 -36817907 36817903 -39210639#1 -39210639#0 39210629#0 39210608#0 39210608#2 -39210636#6 -39210636#5 -39210636#4 -39210636#3 -39210636#2 -39210636#1 -39210636#0 39210627#0 39210627#1 253857356#0 39210621#0 -122317139 4934583#1 220248234#0 -220248185#1"/>
    </vehicle>
    <vehicle id="veh4" type="veh_passenger" depart="4.89" departLane="best">
        <route edges="-36784351 -36784297 -36784230#1 -36784230#0 36785024#2 33725369#1 36790143#0 36790143#1 36790143#2 36790143#3 -36783533 -36783665 36783519 36783590 36783512 36783605 36783655#0 36783655#1 36783655#2 36783655#3 -36783672 -36783549 -36783561 -36783513#1 -36787307#6 -36787307#2 -36787307#1 -36787307#0 36787306#0 291406211#1 36787663#0 36787663#1 36787663#2 44705946 448500604#0 448500604#2 448500603#0 448500603#1 39210622#0 39210631#0 39210634 24490339#0"/>
    </vehicle>
    <vehicle id="veh5" type="veh_passenger" depart="6.11" departLane="best">
        <route edges="-23799437#4 23799437#4 23799437#5 23799437#6 23799437#7 36817893#0 36817891#0 -220249422#1 -220249422#0 220249420#0 220249421#0 220249421#2 -446099375 -447152121#2 -447152121#1 -447152121#0 447152126#0 447152126#2 -447152117#2 -447152117#1 -447152117#0 39210623#0 35351256#0 35349336 39210613 319807282#0 39210610#0 -445946141 -485841646 -379820537 -379820529#1 -320464907#2 -320464907#0 320464908#0 36783525#0 36783679 -36783608 -36783543 36783619 36783515#0 36783691#0 36783691#1 36783690#0 -36783690#0"/>
    </vehicle>
    <vehicle id="veh6" type="veh_passenger" depart="7.34" departLane="best">
        <route edges="36783626 36783632 36783610 36783638 36783621 -36783619 36783543 36783608 -36783679 -36783525#1 -320464908#1 320464907#0 320464907#1 379820529#0 379820537 485841646 445946141 39210617#0 39210611#0 39210638 450355643 275136311#1 35348885#0 36887558#0 31876513#0 42165045#1 485846963 27501713 27501716#0 27501716#1 27501716#2 27501717#0 27501717#1"/>
    </vehicle>
    <vehicle id="veh7" type="veh_passenger" depart="8.56" departLane="best">
        <route edges="-36784351 -36784297 -36784230#1 -36784230#0 36785024#2 -36783664#0 36783591#0 36783591#1 35352000 36783523#0 36783520#0 36783520#1 36783644#0 36789580#4 36789580#5 36783692 -36783690#0 -36783691#1 -36783691#0 36783524#0 36783524#1 -36783657#0 36781735#1 36781735#0"/>
    </vehicle>
    <vehicle id="veh8" type="veh_passenger" depart="9.78" departLane="best">
        <route edges="36805302 36805218 -36805228 36805217 36805315 36805244 -36805243 -36805211 297995583#5 -118670637#1"/>
    </vehicle>
    <vehicle id="veh9" type="veh_passenger" depart="11.00" departLane="best">
        <route edges="36805301 36805286 36805243 -36805244 36805264 36805313 36805235#0 36805235#1 36805235#2 36805248 36805214#0 36805214#1 36805310 -36805312#1 447152126#2 -447152117#2 -447152117#1 -447152117#0 39210623#0 35351256#0 35349336 39210613 319807282#0 39210630#0 -448500603#1 -448500603#0 44705947#0 44705947#2 -44705946 -36787663#2 -36787663#1 -36787663#0 36787090#0 36787103#0 36787103#2 36787101#0 36787101#1 36787100 36787099 205717851#0 36787091#0 -481952455 -433827566 -433827565 -36784857#4 -36784857#3 -36784280#1 -36784360 -36784207#1 36784207#1"/>
    </vehicle>
    <vehicle id="veh10" type="veh_passenger" depart="12.23" departLane="best">
        <route edges="-36885556 -36885535#1 -36885535#0 -36885551#1 61108908#2 35348781 36818849#0 36818849#1 23799437#1 23799437#2 36818899 36818906 36818901 36818900 -36818904#3 -36818904#1 -36818904#0 -220249426#2 -220249426#1 -220249426#0 220249427#0 220249421#0 220249421#2 -446099375 -447152121#2 -447152121#1 -447152121#0 447152126#0 447152126#2 -447152117#2 -447152117#1 -447152117#0 39210623#0 35351256#0 35349336 39210613 319807282#0 39210610#0 -445946141 -485841646 -379820537 -379820529#1 -320464907#2 -320464907#0 320464908#0 36783525#0 36783679 -36783608 -36783543 36783619 -36783619"/>
    </vehicle>
    <vehicle id="veh11" type="veh_passenger" depart="13.45" departLane="best">
        <route edges="445927515 439600162#0 439600162#1 36785024#0 36785024#2 33725369#1 36790143#0 36790143#1 36790143#2 36790143#3 -36783533 -36783665 36783519 36783590 36783512 36783605 36783655#0 36783655#1 36783655#2 36783655#3 -36783672 -36783549 -36783561 -36783513#1 -36787307#6 -36787307#2 -36787307#1 -36787307#0 36787306#0 291406211#1 36787663#0 36787663#1 36787663#2 44705946 448500604#0 448500604#2 448500603#0 448500603#1 39210622#0 39210631#0 39210634 39210602#0 39210602#1 39210632#0 39210632#2 39210639#0 39210639#1 36817906 36817907 36817904 36817908 163036423 163036424#0 163036424#1 36817875 36817874#0 36817910#0 -36817910#0"/>
    </vehicle>
    <vehicle id="veh12" type="veh_passenger" depart="14.67" departLane="best">
        <route edges="-36783524#1 -36783524#0 36783691#0 36783691#1 36783690#0 -36783693#0 -36789580#5 -36789580#4 -36789580#1 36783513#0 36783561 36783549 36783672 -36783655#3 -36783655#2 -36783655#1 -36783655#0 -36783605 -36783512 -36783590 -36783519"/>
    </vehicle>
    <vehicle id="veh13" type="veh_passenger" depart="15.89" departLane="best">
        <route edges="36817910#0 -36817910#0 36817877#0 36817878#0 -163036424#1 -163036424#0 -163036423 -36817908 36817905 -36817907 36817903 -39210639#1 -39210639#0 39210629#0 35351256#0 35349336 39210613 319807282#0 39210630#0 -448500603#1 -448500603#0 44705947#0 44705947#2 -44705946 -36787663#2 -36787663#1 -36787663#0 36787090#0 36787103#0 36787103#2 -36783554#1 -36783554#0 -36783636 -36783640 -36783645 -36783528 36783528"/>
    </vehicle>
    <vehicle id="veh14" type="veh_passenger" depart="17.12" departLane="best">
        <route edges="36805301 36805286 36805243 -36805244 36805264 36805313 36805235#0 36805235#1 36805235#2 36805248 36805214#0 36805214#1 36805310 -36805312#1 447152126#2 -447152117#2 -447152117#1 -447152117#0 39210623#0 35351256#0 35349336 39210613 319807282#0 39210630#0 -448500603#1 -448500603#0 44705947#0 44705947#2 -44705946 -36787663#2 -36787663#1 -36787663#0 36787090#0 36787305#0 36787307#0 36787307#1 36787307#2 36787307#5 36783513#0 36783561 36783549 36783672 -36783655#3 -36783655#2 -36783655#1 -36783655#0 -36783605 -36783512 -36783590 -36783519 36783665 36783533 -36790143#3 -36790143#2 -36790143#1 -36790143#0 -33725369#1 -36785024#2 36784230#0 36784230#1 36784297 36784351"/>
    </vehicle>
    <vehicle id="veh15" type="veh_passenger" depart="18.34" departLane="best">
        <route edges="27501716#0 -27501716#0 27501715 485846960#1 485846960#2 253857386#0 253857386#1 39210621#0 -122317139 4934583#1"/>
    </vehicle>
    <vehicle id="veh16" type="veh_passenger" depart="19.56" departLane="best">
        <route edges="-44705946 -36787663#2 -36787663#1 -36787663#0 36787090#0 36787103#0 36787103#2 36787101#0 36787101#1 287421094#0 287421094#1"/>
    </vehicle>
    <vehicle id="veh17" type="veh_passenger" depart="20.78" departLane="best">
        <route edges="36805344#2 36805344#3 36805344#4 36805339#0 -297995582 -44525299#1 -44525299#0 -466466372 -36817901 36817890#0 36817891#0 -220249422#1 -220249422#0 220249420#0 220249421#0 220249421#2 -446099375 -447152121#2 -447152121#1 -447152121#0 447152126#0 447152126#2 -447152117#2 -447152117#1 -447152117#0 39210623#0 35351256#0 35349336 39210613 319807282#0 39210610#0 -445946141 -485841646 -379820537 -379820529#1 -320464907#2 -320464907#0 320464908#0 36783525#0 36783679 -36783608 -36783543 36783619 -36783621 -36783638 36783552"/>
    </vehicle>
    <vehicle id="veh18" type="veh_passenger" depart="22.01" departLane="best">
        <route edges="36818826 -36818826 -36818828 -36805234 -36805215#1 36805202#0 36805202#1 447152126#2 -447152117#2 -447152117#1 -447152117#0 39210623#0 35351256#0 35349336 39210613 319807282#0 39210610#0 -445946141 -485841646 -379820537 -379820529#1 -320464907#2 -320464907#0 320464908#0 36783525#0 36783679 -36783608 -36783543 36783619 36783515#0 36783691#0 36783691#1 36783690#0 320607699#1 320607700#0"/>
    </vehicle>
    <vehicle id="veh19" type="veh_passenger" depart="23.23" departLane="best">
        <route edges="36784239 -36784210 36790143#6 36790143#7 36790143#8 36787095#0 42140524#0 205717853 205717852 205717854#0 36787107#0 195058446 36787108#1 291406210#0 291406211#1 36787663#0 36787663#1 36787663#2 44705946 448500604#0 448500604#2 448500603#0 448500603#1 39210622#0 39210631#0 39210634 24490339#0 24490339#1 -24490339#1"/>
    </vehicle>
    <vehicle id="veh20" type="veh_passenger" depart="24.45" departLane="best">
        <route edges="-36785024#2 36785024#2 33725369#1 36790143#0 36790143#1 36790143#2 36790143#3 -36783533 -36783665 36783519 36783590 36783512 36783605 36783655#0 36783655#1 36783655#2 36783655#3 -36783672 -36783549 -36783561 -36783513#1 -36787307#6 -36787307#2 -36787307#1 -36787307#0 36787306#0 291406211#1 36787663#0 36787663#1 36787663#2 44705946 448500604#0 448500604#2 448500603#0 448500603#1 39210622#0 39210631#0 39210634 39210602#0 39210602#1 39210615#0 447152117#0 447152117#1 447152117#2 39210637#0 36805312#0 -36805310 -36805214#1 -36805214#0 -36805248 -36805235#2 -36805235#1 -36805235#0 -36805313 -36805264 36805244 -36805267 -36805259"/>
    </vehicle>
    <vehicle id="veh21" type="veh_passenger" depart="25.67" departLane="best">
        <route edges="-35346428 -36783656 -36783588 36783679 -36783608 -36783543 36783619 36783515#0 36783691#0 36783691#1 36783690#0 -36783693#0 -36789580#5 -36789580#4 -36789580#1 36783513#0 36783561 36783549 36783672 -36783655#3 -36783655#2 -36783655#1 -36783655#0 -36783605 -36783512 -36783590 -36783519 36783665 36783533 36784244 36784268 -36784375 -36784198 -36784200 36784321#0 -36784321#0"/>
    </vehicle>
    <vehicle id="veh22" type="veh_passenger" depart="26.90" departLane="best">
        <route edges="-36783536 36783536 36783585 36783528 36783645 -36783582 -36783510 -36783620#1 -36787307#2 -36787307#1 -36787307#0 36787306#0 291406211#1 36787663#0 36787663#1 36787663#2 44705946 448500604#0 448500604#2 448500603#0 448500603#1 39210622#0 39210631#0 39210634 39210602#0 39210602#1 39210615#0 447152117#0 447152117#1 447152117#2 39210637#0 39210637#2 447152121#0 447152121#1 447152121#2 446099375 220249424#0 220249423#0 220249422#0 220249422#1 36817894#0 36817899#0 36817901 466466372 36805232 -36805232"/>
    </vehicle>
    <vehicle id="veh23" type="veh_passenger" depart="28.12" departLane="best">
        <route edges="36783601 -36783625 36783646 36783631 -36783674 320464907#1 379820529#0 379820537 485841646 445946141 39210617#0 39210631#0 39210634 39210602#0 39210602#1 39210615#0 447152117#0 447152117#1 447152117#2 39210637#0 39210637#2 447152121#0 447152121#1 447152121#2 446099375 220249424#0 220249425#0 220249426#0 220249426#1 220249426#2 -36805282 -36805293 36818902#0 36818902#1 36818902#2 -36818902#2"/>
    </vehicle>
    <vehicle id="veh24" type="veh_passenger" depart="29.34" departLane="best">
        <route edges="-44524848#2 -44524848#1 -44524848#0 -31115840#1 61108908#2 35348781 36818849#0 36818849#1 23799437#1 23799437#2 36818899 36818906 36818901 36818900 -36818904#3 -36818904#1 -36818904#0 -220249426#2 -220249426#1 -220249426#0 220249427#0 220249421#0 220249421#2 -446099375 -447152121#2 -447152121#1 -447152121#0 447152126#0 447152126#2 -447152117#2 -447152117#1 -447152117#0 39210623#0 35351256#0 35349336 39210613 319807282#0 39210630#0 -448500603#1 -448500603#0 44705947#0 44705947#2 -44705946 -36787663#2 -36787663#1 -36787663#0 36787090#0 36787305#0 36787307#0 36787307#1 36787307#2 36787307#5 36783513#0 36783561 36783549 36783672 -36783655#3 -36783655#2 -36783655#1 -36783655#0 -36783605 -36783512 -36783590 -36783519 36783665 36783533 36784244 36784268 36784224#0 -36784224#0"/>
    </vehicle>
    <vehicle id="veh25" type="veh_passenger" depart="30.56" departLane="best">
        <route edges="-36805236#1 -36805244 36805264 36805313 36805235#0 36805235#1 36805235#2 36805248 36805214#0 36805214#1 36805310 -36805312#1 447152126#2 -447152117#2 -447152117#1 -447152117#0 39210623#0 35351256#0 35349336 39210613 319807282#0 39210630#0 -448500603#1 -448500603#0 44705947#0 44705947#2 -44705946 -36787663#2 -36787663#1 -36787663#0 36787090#0 36787305#0 36787307#0 36787307#1 36787307#2 36787307#5 36783513#0 36783561 36783549 36783672 -36783655#3 -36783655#2 -36783655#1 -36783655#0 -36783605 -36783512 -36783590 -36783519 36783665 36783533 -36790143#3 -36790143#2 -36790143#1 -36790143#0 -33725369#1 -36785024#2 -36785024#0 -36785025 -439600162#0 -445927515 86823934#0 33414856#2 439600159#0 439600159#1 439600159#2 439600159#3 439600159#4"/>
    </vehicle>
    <vehicle id="veh26" type="veh_passenger" depart="31.79" departLane="best">
        <route edges="36783624 -36783655#3 -36783655#2 -36783655#1 -36783655#0 -36783605 -36783512 -36783590 36783663 36783546 36783633#0 36783633#1 36783536"/>
    </vehicle>
    <vehicle id="veh27" type="veh_passenger" depart="33.01" departLane="best">
        <route edges="-36783663 -36783519 36783665 36783533 -36790143#3 -36790143#2 -36790143#1 -36790143#0 -33725369#1 -36785024#2 36784230#0 36784230#1 36784297 36784351"/>
    </vehicle>
    <vehicle id="veh28" type="veh_passenger" depart="34.23" departLane="best">
        <route edges="-36783652#0 36783652#0 -36783691#1 -36783691#0 -36783515#0 -36783619 36783543 36783608 -36783679 -36783525#1 -320464908#1 320464907#0 320464907#1 379820529#0 379820537 485841646 445946141 39210617#0 39210631#0 39210634 39210602#0 39210602#1 39210608#0 39210608#2 -39210636#6 -39210636#5 -39210636#4 -39210636#3"/>
    </vehicle>
    <vehicle id="veh29" type="veh_passenger" depart="35.45" departLane="best">
        <route edges="50887299#1 50887299#2 36887556#0 36887557#0 -275136311#1 -275136311#0 -39210638 39210616#0 39210610#0 -445946141 -485841646 -379820537 -379820529#1 -320464907#2 -320464907#0 320464908#0 36783525#0 36783679 -36783608 -36783543 36783592#0 36783592#1"/>
    </vehicle>
    <vehicle id="veh30" type="veh_passenger" depart="36.68" departLane="best">
        <route edges="302947060#0 302947060#1 189749055#0 189749055#1 186587456 36787103#2 -36783554#1 -36783554#0 -36783636 -36783640 -36783645 -36783627 -36783634 36783672"/>
    </vehicle>
    <vehicle id="veh31" type="veh_passenger" depart="37.90" departLane="best">
        <route edges="36817902#1 -36817902#1 -36817902#0 36817892#0 36817891#0 -220249422#1 -220249422#0 220249420#0 220249421#0 220249421#2 -446099375 -447152121#2 -447152121#1 -447152121#0 447152126#0 36805312#0 36805294 36805227"/>
    </vehicle>
    <vehicle id="veh32" type="veh_passenger" depart="39.12" departLane="best">
        <route edges="-36785159 36785159 36783554#0 36783554#1 36787101#0 36787101#1 36787107#0 195058446 36787108#1 291406210#0 291406211#1 36787663#0 36787663#1 36787663#2 44705946 448500604#0 448500604#2 448500603#0 448500603#1 39210622#0 39210631#0 39210634 39210602#0 39210602#1 39210615#0 447152117#0 447152117#1 447152117#2 39210637#0 39210637#2 447152121#0 447152121#1 447152121#2 446099375 220249424#0 220249425#0 220249426#0 220249426#1 -220249426#1"/>
    </vehicle>
    <vehicle id="veh33" type="veh_passenger" depart="40.34" departLane="best">
        <route edges="-36818839#3 -36818839#2 -36818839#1 -36818839#0 -36818827 -36818830#2 -36818830#1 -36818826 -36818828 -36805234 -36805215#1 36805202#0 36805202#1 36805312#0 -36805310 -36805214#1 -36805214#0 -36805248 -36805235#2 -36805235#1 -36805235#0 -36805313 -36805264 36805244 -36805243 -36805211"/>
    </vehicle>
    <vehicle id="veh34" type="veh_passenger" depart="41.57" departLane="best">
        <route edges="-36784291 -36784297 -36784230#1 -36784230#0 -36785024#0 -36785025 -439600162#0 -445927515 86823934#0 439600164#1 439600163#0 439600163#1"/>
    </vehicle>
    <vehicle id="veh35" type="veh_passenger" depart="42.79" departLane="best">
        <route edges="36818900 -36818904#3 -36818904#1 -36818904#0 -220249426#2 -220249426#1 -220249426#0 220249427#0 220249421#0 220249421#2 -446099375 -447152121#2 -447152121#1 -447152121#0 447152126#0 36805312#0 -36805310 -36805295 -36805270 -36805309"/>
    </vehicle>
    <vehicle id="veh36" type="veh_passenger" depart="44.01" departLane="best">
        <route edges="36783633#0 -36783633#0 -36783546 -36783663 -36783519 36783665 36783533 -36790143#3 -36790143#2 -36790143#1 -36790143#0 -33725369#1 -36785024#2 -36785024#0 -36785025 -439600162#0 -445927515 86823934#0 33414856#2 439600159#0 -439600159#0"/>
    </vehicle>
    <vehicle id="veh37" type="veh_passenger" depart="45.23" departLane="best">
        <route edges="39210613 319807282#0 39210630#0 -448500603#1 -448500603#0 44705947#0 44705947#2 -44705946 -36787663#2 -36787663#1 -36787663#0 36787090#0 36787103#0 195058445 -110478685#5 -110478685#4 -110478685#3 -110478685#2 110478685#0 -195046709#8 -195046709#7 195046709#7"/>
    </vehicle>
    <vehicle id="veh38" type="veh_passenger" depart="46.46" departLane="best">
        <route edges="-36805235#0 36805235#0 36805235#1 36805235#2 36805248 36805214#0 36805214#1 36805310 -36805312#1 447152126#2 -447152117#2 -447152117#1 -447152117#0 39210623#0 35351256#0 35349336 39210613 319807282#0 39210630#0 -448500603#1 -448500603#0 44705947#0 44705947#2 -44705946 -36787663#2 -36787663#1 -36787663#0 36787090#0 36787103#0 36787103#2 -36783554#1 -36783554#0 -36785159"/>
    </vehicle>
    <vehicle id="veh39" type="veh_passenger" depart="47.68" departLane="best">
        <route edges="319807282#0 39210630#0 -448500603#1 -448500603#0 44705947#0 44705947#2 -44705946 -36787663#2 -36787663#1 -36787663#0 36787090#0 36787305#0 36787307#0 36787307#1 36787307#2 36787307#5 36783513#0 36783561 36783549 36783672 -36783655#3 -36783655#2 -36783655#1 -36783655#0 -36783605 -36783512 -36783590 -36783519 36783665 36783533 -36790143#3 -36790143#2 -36790143#1 -36790143#0 -33725369#1 -36785024#2 -36785024#0 -36785025 -439600162#0 -445927515 86823934#0 33414856#2 439600159#0 -36791855"/>
    </vehicle>
    <vehicle id="veh40" type="veh_passenger" depart="48.90" departLane="best">
        <route edges="36783514#0 -36783514#0 -36783637 36783596 -36783661 -36783625 36783646 36783631 -36783674 320464907#1 379820529#0"/>
    </vehicle>
    <vehicle id="veh41" type="veh_passenger" depart="50.12" departLane="best">
        <route edges="-5379221#1 -5379221#0 36887560#0 36887555#0 -50887299#2 -50887299#1 -50887299#0 50887296#0 35349680#0 50887292#0 135953624#0 135953624#1 135953624#3 36787302#0 36787305#0 36787307#0 36787307#1 36787307#2 36787307#5 36783513#0 36783561 36783549 36783672 -36783655#3 -36783655#2 -36783655#1 -36783655#0 -36783605 -36783512 -36783590 -36783519 36783665 36783533 -36790143#3 -36790143#2 -36790143#1 -36790143#0 36784352#1 36784308 -128944702 -36784249"/>
    </vehicle>
    <vehicle id="veh42" type="veh_passenger" depart="51.35" departLane="best">
        <route edges="61108908#2 35348781 36818849#0 36818849#1 23799437#1 23799437#2 36818899 36818906 36818901 36818900 -36818904#3 -36818904#1 -36818904#0 -220249426#2 -220249426#1 -220249426#0 220249427#0 220249421#0 220249421#2 -446099375 -447152121#2 -447152121#1 -447152121#0 447152126#0 447152126#2 -447152117#2 -447152117#1 -447152117#0 39210623#0 35351256#0 35349336 -24490336#4 25022563#0 25022563#1 25022563#3 25022563#5 25022563#7 25022563#8 24490356#1 24490356#2 24490356#3"/>
    </vehicle>
    <vehicle id="veh43" type="veh_passenger" depart="52.57" departLane="best">
        <route edges="-36783522#1 -36783522#0 -36783524#1 -36783524#0 -36783515#0 -36783619 36783543 36783608 -36783679 -36783525#1 -320464908#1 320464907#0 320464907#1 -320464970#1 -24490356#4 -24490356#3 -24490356#2 -24490356#1"/>
    </vehicle>
    <vehicle id="veh44" type="veh_passenger" depart="53.79" departLane="best">
        <route edges="-36783552 36783638 36783621 36783531 36783614 36783596 36783684 36783643 36783530 36783564#0 36783564#1 36783564#2"/>
    </vehicle>
    <vehicle id="veh45" type="veh_passenger" depart="55.01" departLane="best">
        <route edges="36805259 36805267 -36805244 36805264 36805313 36805235#0 36805235#1 36805235#2 36805248 36805214#0 36805214#1 36805310 -36805312#1 447152126#2 -447152117#2 -447152117#1 -447152117#0 39210623#0 35351256#0 35349336 39210613 319807282#0 39210630#0 -448500603#1 -448500603#0 44705947#0 44705947#2 -44705946 -36787663#2 -36787663#1 -36787663#0 36787090#0 36787103#0 36787103#2 36787101#0 36787101#1 36787100 36787099 205717851#0 36787094#0 -50888397#3"/>
    </vehicle>
    <vehicle id="veh46" type="veh_passenger" depart="56.24" departLane="best">
        <route edges="-297995583#4 -297995583#0 -297995581 -297995582 -44525299#1 -44525299#0 -466466372 -36817901 36817890#0 36817891#0 -220249422#1 -220249422#0 220249420#0 220249421#0 220249421#2 -446099375 -447152121#2 -447152121#1 -447152121#0 447152126#0 447152126#2 -447152117#2 -447152117#1 -447152117#0 39210623#0 35351256#0 35349336 39210613 319807282#0 39210611#0 39210638 -39210638"/>
    </vehicle>
    <vehicle id="veh47" type="veh_passenger" depart="57.46" departLane="best">
        <route edges="61108908#0 61108908#2 35348781 36818849#0 36818849#1 23799437#1 23799437#2 36818899 36818906 36818901 36818900 -36818904#3 -36818904#1 -36818904#0 -220249426#2 -220249426#1 -220249426#0 220249427#0 220249421#0 220249421#2 -446099375 -447152121#2 -447152121#1 -447152121#0 447152126#0 447152126#2 -447152117#2 -447152117#1 -447152117#0 39210623#0 35351256#0 35349336 39210613 319807282#0 39210630#0 -448500603#1 -448500603#0 44705947#0 44705947#2 -44705946 -36787663#2 -36787663#1 -36787663#0 36787090#0 36787103#0 36787103#2 36787101#0 36787101#1 36787100 36787099 205717851#0 36787098#0 -36790143#8 -36790143#7 -36790143#6 36784210 -36784349 -36784341 25542534#0"/>
    </vehicle>
    <vehicle id="veh48" type="veh_passenger" depart="58.68" departLane="best">
        <route edges="448500604#2 448500603#0 448500603#1 39210622#0 39210631#0 39210634 39210602#0 39210602#1 39210615#0 447152117#0 447152117#1 447152117#2 39210637#0 39210637#2 447152121#0 447152121#1 447152121#2 446099375 220249424#0 220249425#0 220249426#0 220249426#1 220249426#2 -36805282 -36805293 36818902#0 36818902#1 36818902#2"/>
    </vehicle>
    <vehicle id="veh49" type="veh_passenger" depart="59.90" departLane="best">
        <route edges="-190536420#4 190536420#4 190536421 27121829 50888446 190539057#0 227817712#0 50888397#0 50888397#2 36787096#0 36787098#0 -36790143#8 -36790143#7 -36790143#6 -36790143#5 -36790143#4 -36790143#3 -36790143#2 -36790143#1 -36790143#0 -33725369#1 -36785024#2 36784230#0 36784230#1 36784297"/>
    </vehicle>
    <vehicle id="veh50" type="veh_passenger" depart="61.13" departLane="best">
        <route edges="36783676 36783519 36783590 36783512 36783605 36783655#0 36783655#1 36783655#2 36783655#3 -36783672 -36783549 -36783561 -36783513#1 -36787307#6 -36787307#2 -36787307#1 -36787307#0 36787306#0 36787303#0 -135953624#4 27121496#0 27121504#1 27121506#1"/>
    </vehicle>
    <vehicle id="veh51" type="veh_passenger" depart="62.35" departLane="best">
        <route edges="-36805236#1 -36805244 36805264 36805313 36805235#0 36805235#1 36805235#2 36805248 36805214#0 36805214#1 36805310 -36805312#1 447152126#2 -447152117#2 -447152117#1 -447152117#0 39210623#0 35351256#0 35349336 39210613 319807282#0 39210610#0 -445946141 -485841646 -379820537 -379820529#1 -320464907#2 -320464907#0 320464908#0 36783525#0 36783679 -36783608 -36783543 36783619 -36783621 -36783638 -36783610 -36783632 36783593"/>
    </vehicle>
    <vehicle id="veh52" type="veh_passenger" depart="63.57" departLane="best">
        <route edges="-36783555 36783633#0 36783633#1 36783536 36783585 36783528 36783645 36783640 36783636 36783554#0 36783554#1 36787101#0 36787101#1 287421094#0 287421094#1 302947060#0 302947060#1 189749055#0 189749055#1 189749056 291406216#0 291406216#1 27121501#1 27121501#2 -135953624#2 -135953624#0 -50887292#1 377674260#0 252976983#0 50887299#0 50887299#1 50887299#2 36887556#0 36887558#0 31876513#0 42165045#1 485846963 485846960#1 485846960#2 253857386#0 253857386#1 39210621#0 -122317139 4934583#1 220248234#0 23799451#0 376316643 122317141"/>
    </vehicle>
    <vehicle id="veh53" type="veh_passenger" depart="64.80" departLane="best">
        <route edges="220190751 36818475 220190752 -448491823 448491825#0 304447494#0 -36817902#2 -36817902#1 -36817902#0 36817892#0 36817891#0 -220249422#1 -220249422#0 220249420#0 220249421#0 220249421#2 -446099375 -447152121#2 -447152121#1 -447152121#0 447152126#0 447152126#2 -447152117#2 -447152117#1 -447152117#0 39210623#0 35351256#0 35349336 39210613 319807282#0 39210630#0 -448500603#1 -448500603#0 44705947#0 44705947#2 -44705946 -36787663#2 -36787663#1 -36787663#0 36787090#0 36787103#0 195058445 291406213#0 291406213#1 291406212#1 291406212#2 291406212#3 291406212#4 291406212#5 380182171 50888446 190539057#0 26296426#0 26296426#2 26296426#3 225754958 446037867"/>
    </vehicle>
    <vehicle id="veh54" type="veh_passenger" depart="66.02" departLane="best">
        <route edges="36818899 -36818899 23799437#3 23799437#4 23799437#5 23799437#6 23799437#7 36817893#0 36817899#0 36817901 466466372 44525299#0 44525299#1 297995582 297995581 297995583#0 -36805236#1 -36805244 -36805315 -36805284 -36805260 36805204 -36805199"/>
    </vehicle>
    <vehicle id="veh55" type="veh_passenger" depart="67.24" departLane="best">
        <route edges="24490356#4 320464970#0 379820529#0 379820537 485841646 445946141 39210617#0 39210630#0 -448500603#1 -448500603#0 44705947#0 44705947#2 -44705946 -36787663#2 -36787663#1 -36787663#0 36787090#0 36787103#0 36787103#2 36787101#0 36787101#1 36787100 -36783654"/>
    </vehicle>
    <vehicle id="veh56" type="veh_passenger" depart="68.46" departLane="best">
        <route edges="39210608#2 39210600#0 39210615#0 447152117#0 447152117#1 447152117#2 39210637#0 39210637#2 447152121#0 447152121#1 447152121#2 446099375 220249424#0 220249425#0 220249426#0 220249426#1 220249426#2 -36805282 -36805293 36818902#0 36818902#1 36818902#2 36818902#3 36818902#4 -36818899 -23799437#2 -23799437#1 -23799437#0 -36818849#0 36818848 -61108908#3 36885551#0 36885535#0 36885535#1 36885535#2"/>
    </vehicle>
    <vehicle id="veh57" type="veh_passenger" depart="69.69" departLane="best">
        <route edges="-36805344#3 36805344#3 36805344#4 36805339#0 -297995582 -44525299#1 -44525299#0 -466466372 -36817901 36817890#0 36817891#0 -220249422#1 -220249422#0 220249420#0 220249421#0 220249421#2 -446099375 -447152121#2 -447152121#1 -447152121#0 447152126#0 447152126#2 -447152117#2 -447152117#1 -447152117#0 39210623#0 35351256#0 35349336 39210613 319807282#0 39210610#0 -445946141 -485841646 -379820537 -379820529#1 -320464907#2 -320464907#0 320464908#0 36783525#0 36783679 -36783608 -36783543 36783592#0"/>
    </vehicle>
    <vehicle id="veh58" type="veh_passenger" depart="70.91" departLane="best">
        <route edges="36783550 36783533 -36790143#3 -36790143#2 -36790143#1 -36783613"/>
    </vehicle>
    <vehicle id="veh59" type="veh_passenger" depart="72.13" departLane="best">
        <route edges="36791855 -439600159#0 439600157#0 439600161#0 445927515 439600162#0 439600162#1 36785024#0 36785024#2 33725369#1 36790143#0 36790143#1 36790143#2 36790143#3 -36783533 -36783665 36783519 36783590 36783512 36783605 36783655#0 36783655#1 36783655#2 36783655#3 -36783672 -36783549 -36783561 -36783513#1 -36787307#6 -36787307#2 -36787307#1 -36787307#0 36787306#0 36787303#0 -135953624#4 -135953624#2 -135953624#0 27121820#0"/>
    </vehicle>
    <vehicle id="veh60" type="veh_passenger" depart="73.35" departLane="best">