<?xml version="1.0" encoding="UTF-8"?>

<!-- generated on Wed Nov  7 15:01:43 2018 by SUMO netconvert Version 0.25.0
<?xml version="1.0" encoding="UTF-8"?>

<configuration xmlns:xsi="http://www.w3.org/2001/XMLSchema-instance" xsi:noNamespaceSchemaLocation="http://sumo.dlr.de/xsd/netconvertConfiguration.xsd">

    <input>
        <type-files value="/usr/share/sumo/data/typemap/osmNetconvert.typ.xml"/>
        <osm-files value="osm_bbox.osm.xml"/>
    </input>

    <output>
        <output-file value="/usr/share/sumo/tools/2018-11-07-15-01-42/osm.net.xml"/>
        <output.street-names value="true"/>
        <output.original-names value="true"/>
    </output>

    <projection>
        <proj.utm value="true"/>
    </projection>

    <tls_building>
        <tls.discard-simple value="true"/>
        <tls.join value="true"/>
        <tls.guess-signals value="true"/>
    </tls_building>

    <ramp_guessing>
        <ramps.guess value="true"/>
    </ramp_guessing>

    <processing>
        <geometry.remove value="true"/>
        <roundabouts.guess value="true"/>
        <junctions.join value="true"/>
        <junctions.corner-detail value="5"/>
    </processing>

    <report>
        <verbose value="true"/>
    </report>

</configuration>
-->

<net version="0.25" junctionCornerDetail="5" xmlns:xsi="http://www.w3.org/2001/XMLSchema-instance" xsi:noNamespaceSchemaLocation="http://sumo.dlr.de/xsd/net_file.xsd">

    <location netOffset="-637218.01,-4847865.29" convBoundary="0.00,0.00,1610.59,1146.72" origBoundary="-79.299892,43.761613,-79.274006,43.781353" projParameter="+proj=utm +zone=17 +ellps=WGS84 +datum=WGS84 +units=m +no_defs"/>

    <type id="highway.living_street" priority="3" numLanes="1" speed="6.70"/>
    <type id="highway.motorway" priority="13" numLanes="3" speed="29.10"/>
    <type id="highway.motorway_link" priority="12" numLanes="1" speed="24.60"/>
    <type id="highway.primary" priority="9" numLanes="2" speed="20.10"/>
    <type id="highway.primary_link" priority="8" numLanes="1" speed="20.10"/>
    <type id="highway.residential" priority="4" numLanes="1" speed="13.40"/>
    <type id="highway.secondary" priority="7" numLanes="2" speed="17.90"/>
    <type id="highway.tertiary" priority="6" numLanes="1" speed="17.90"/>
    <type id="highway.trunk" priority="11" numLanes="2" speed="29.10"/>
    <type id="highway.trunk_link" priority="10" numLanes="1" speed="24.60"/>
    <type id="highway.unclassified" priority="5" numLanes="1" speed="13.40"/>

    <edge id=":1367240508_0" function="internal">
        <lane id=":1367240508_0_0" index="0" speed="21.25" length="51.06" shape="911.07,265.16 907.27,273.57 902.30,288.96 897.95,304.62 895.99,313.83"/>
    </edge>
    <edge id=":1367240508_1" function="internal">
        <lane id=":1367240508_1_0" index="0" speed="17.90" length="51.87" shape="911.07,265.16 907.49,271.49 902.60,283.35 897.30,298.14 892.50,313.25"/>
        <lane id=":1367240508_1_1" index="1" speed="17.90" length="51.87" shape="911.07,265.16 907.00,271.34 901.02,282.88 894.63,297.35 889.33,312.31"/>
    </edge>
    <edge id=":1367240508_3" function="internal">
        <lane id=":1367240508_3_0" index="0" speed="21.25" length="52.05" shape="907.82,263.19 903.39,278.42 899.66,293.77 897.06,306.48 895.99,313.83"/>
    </edge>
    <edge id=":1367240508_4" function="internal">
        <lane id=":1367240508_4_0" index="0" speed="17.90" length="52.67" shape="898.41,260.12 894.68,273.45 892.09,285.69 889.60,297.95 886.17,311.37"/>
        <lane id=":1367240508_4_1" index="1" speed="17.90" length="52.67" shape="898.41,260.12 894.19,273.31 890.51,285.22 886.93,297.16 883.00,310.44"/>
    </edge>
    <edge id=":1367509311_0" function="internal">
        <lane id=":1367509311_0_0" index="0" speed="20.63" length="8.90" shape="756.72,638.23 757.13,629.34"/>
    </edge>
    <edge id=":1367509311_1" function="internal">
        <lane id=":1367509311_1_0" index="0" speed="16.67" length="9.62" shape="759.83,639.33 760.75,629.86"/>
        <lane id=":1367509311_1_1" index="1" speed="16.67" length="9.62" shape="762.94,640.43 763.89,630.86"/>
        <lane id=":1367509311_1_2" index="2" speed="16.67" length="9.62" shape="766.05,641.54 767.04,631.87"/>
    </edge>
    <edge id=":1741679483_0" function="internal">
        <lane id=":1741679483_0_0" index="0" speed="16.67" length="4.10" shape="783.33,631.39 785.53,635.36"/>
        <lane id=":1741679483_0_1" index="1" speed="16.67" length="4.10" shape="780.16,630.44 782.40,634.30"/>
        <lane id=":1741679483_0_2" index="2" speed="16.67" length="4.10" shape="777.00,629.50 779.27,633.24"/>
        <lane id=":1741679483_0_3" index="3" speed="16.67" length="4.10" shape="777.00,629.50 776.15,632.18"/>
        <lane id=":1741679483_0_4" index="4" speed="16.67" length="4.10" shape="777.00,629.50 773.02,631.12"/>
    </edge>
    <edge id=":21543033_0" function="internal">
        <lane id=":21543033_0_0" index="0" speed="27.78" length="3.00" shape="929.85,441.40 932.67,442.42"/>
        <lane id=":21543033_0_1" index="1" speed="27.78" length="3.00" shape="928.78,444.53 931.61,445.54"/>
        <lane id=":21543033_0_2" index="2" speed="27.78" length="3.00" shape="927.72,447.65 930.54,448.66"/>
    </edge>
    <edge id=":21543033_3" function="internal">
        <lane id=":21543033_3_0" index="0" speed="26.19" length="1.48" shape="932.34,438.82 933.74,439.30"/>
    </edge>
    <edge id=":2293763784_0" function="internal">
        <lane id=":2293763784_0_0" index="0" speed="17.90" length="4.84" shape="906.04,197.94 902.15,193.64"/>
        <lane id=":2293763784_0_1" index="1" speed="17.90" length="4.84" shape="909.20,198.87 905.31,194.59"/>
        <lane id=":2293763784_0_2" index="2" speed="17.90" length="4.84" shape="909.20,198.87 908.47,195.53"/>
        <lane id=":2293763784_0_3" index="3" speed="17.90" length="4.84" shape="909.20,198.87 911.63,196.47"/>
        <lane id=":2293763784_0_4" index="4" speed="17.90" length="4.84" shape="909.20,198.87 914.80,197.42"/>
    </edge>
    <edge id=":23799456-AddedOffRampNode_0" function="internal">
        <lane id=":23799456-AddedOffRampNode_0_0" index="0" speed="16.67" length="4.39" shape="864.77,394.73 869.73,399.89"/>
        <lane id=":23799456-AddedOffRampNode_0_1" index="1" speed="16.67" length="4.39" shape="864.77,394.73 866.65,398.69"/>
        <lane id=":23799456-AddedOffRampNode_0_2" index="2" speed="16.67" length="4.39" shape="864.77,394.73 863.58,397.49"/>
        <lane id=":23799456-AddedOffRampNode_0_3" index="3" speed="16.67" length="4.39" shape="861.69,393.53 860.51,396.28"/>
    </edge>
    <edge id=":23799457-AddedOffRampNode_0" function="internal">
        <lane id=":23799457-AddedOffRampNode_0_0" index="0" speed="16.67" length="4.23" shape="814.54,485.18 809.10,480.65"/>
        <lane id=":23799457-AddedOffRampNode_0_1" index="1" speed="16.67" length="4.23" shape="814.54,485.18 812.26,481.59"/>
        <lane id=":23799457-AddedOffRampNode_0_2" index="2" speed="16.67" length="4.23" shape="814.54,485.18 815.43,482.52"/>
        <lane id=":23799457-AddedOffRampNode_0_3" index="3" speed="16.67" length="4.23" shape="817.70,486.12 818.59,483.46"/>
    </edge>
    <edge id=":23799461#1-AddedOnRampNode_0" function="internal">
        <lane id=":23799461#1-AddedOnRampNode_0_0" index="0" speed="27.78" length="3.00" shape="1024.47,473.77 1027.32,474.69"/>
        <lane id=":23799461#1-AddedOnRampNode_0_1" index="1" speed="27.78" length="3.00" shape="1023.40,476.89 1026.26,477.81"/>
        <lane id=":23799461#1-AddedOnRampNode_0_2" index="2" speed="27.78" length="3.00" shape="1022.34,480.01 1025.19,480.93"/>
    </edge>
    <edge id=":23799470#1-AddedOnRampNode_0" function="internal">
        <lane id=":23799470#1-AddedOnRampNode_0_0" index="0" speed="27.78" length="3.00" shape="655.07,414.05 652.23,413.09"/>
        <lane id=":23799470#1-AddedOnRampNode_0_1" index="1" speed="27.78" length="3.00" shape="656.18,410.94 653.34,409.98"/>
        <lane id=":23799470#1-AddedOnRampNode_0_2" index="2" speed="27.78" length="3.00" shape="657.29,407.84 654.45,406.87"/>
    </edge>
    <edge id=":257893241_0" function="internal">
        <lane id=":257893241_0_0" index="0" speed="17.28" length="4.31" shape="869.18,392.14 865.11,393.83"/>
        <lane id=":257893241_0_1" index="1" speed="17.28" length="4.31" shape="866.01,391.21 862.04,392.63"/>
    </edge>
    <edge id=":257893245_0" function="internal">
        <lane id=":257893245_0_0" index="0" speed="16.67" length="3.96" shape="810.68,486.26 814.48,485.37"/>
        <lane id=":257893245_0_1" index="1" speed="16.67" length="3.96" shape="813.77,487.42 817.64,486.31"/>
    </edge>
    <edge id=":270401837_0" function="internal">
        <lane id=":270401837_0_0" index="0" speed="13.40" length="4.35" shape="811.99,714.04 815.11,715.63"/>
        <lane id=":270401837_0_1" index="1" speed="13.40" length="4.35" shape="811.99,714.04 814.13,718.78"/>
    </edge>
    <edge id=":270401837_2" function="internal">
        <lane id=":270401837_2_0" index="0" speed="13.40" length="6.17" shape="811.99,714.04 813.15,715.55 813.31,716.72 812.47,717.55 810.64,718.04"/>
    </edge>
    <edge id=":301930047_0" function="internal">
        <lane id=":301930047_0_0" index="0" speed="17.90" length="9.77" shape="1086.98,232.32 1079.40,238.49"/>
    </edge>
    <edge id=":301930047_1" function="internal">
        <lane id=":301930047_1_0" index="0" speed="17.90" length="3.88" shape="1077.61,235.12 1080.67,234.57 1081.42,234.79"/>
    </edge>
    <edge id=":301930047_2" function="internal">
        <lane id=":301930047_2_0" index="0" speed="17.90" length="5.08" shape="1081.42,234.79 1081.99,234.95 1081.57,236.26 1079.40,238.49"/>
    </edge>
    <edge id=":32475124_0" function="internal">
        <lane id=":32475124_0_0" index="0" speed="16.67" length="3.42" shape="789.03,548.58 788.54,545.17"/>
        <lane id=":32475124_0_1" index="1" speed="16.67" length="3.42" shape="789.03,548.58 791.63,546.33"/>
        <lane id=":32475124_0_2" index="2" speed="16.67" length="3.42" shape="792.13,549.72 794.72,547.49"/>
        <lane id=":32475124_0_3" index="3" speed="16.67" length="3.42" shape="795.23,550.87 797.81,548.65"/>
    </edge>
    <edge id=":32475196_0" function="internal">
        <lane id=":32475196_0_0" index="0" speed="24.60" length="2.93" shape="993.07,577.40 991.43,579.59"/>
        <lane id=":32475196_0_1" index="1" speed="24.60" length="2.93" shape="993.07,577.40 990.35,576.47"/>
        <lane id=":32475196_0_2" index="2" speed="24.60" length="2.93" shape="992.33,574.19 989.27,573.35"/>
    </edge>
    <edge id=":32475202_0" function="internal">
        <lane id=":32475202_0_0" index="0" speed="26.19" length="1.40" shape="1425.64,680.89 1424.32,680.41"/>
    </edge>
    <edge id=":32475202_1" function="internal">
        <lane id=":32475202_1_0" index="0" speed="27.78" length="3.15" shape="1426.69,677.76 1423.63,676.67"/>
        <lane id=":32475202_1_1" index="1" speed="27.78" length="3.15" shape="1427.75,674.63 1424.78,673.58"/>
        <lane id=":32475202_1_2" index="2" speed="27.78" length="3.15" shape="1428.81,671.51 1425.93,670.49"/>
    </edge>
    <edge id=":32475300_0" function="internal">
        <lane id=":32475300_0_0" index="0" speed="20.63" length="82.22" shape="808.94,555.47 821.37,522.34 829.24,498.26 832.54,483.23 831.27,477.25"/>
    </edge>
    <edge id=":32475300_1" function="internal">
        <lane id=":32475300_1_0" index="0" speed="16.67" length="98.37" shape="835.65,478.04 828.10,498.49 818.24,526.38 808.83,553.44 802.65,571.39"/>
        <lane id=":32475300_1_1" index="1" speed="16.67" length="98.37" shape="832.34,477.44 824.83,497.80 815.04,525.48 805.71,552.33 799.57,570.19"/>
        <lane id=":32475300_1_2" index="2" speed="16.67" length="98.37" shape="829.03,476.84 821.56,497.11 811.85,524.58 802.60,551.22 796.49,568.99"/>
    </edge>
    <edge id=":32475337_0" function="internal">
        <lane id=":32475337_0_0" index="0" speed="26.19" length="5.00" shape="748.12,450.67 743.39,449.07"/>
    </edge>
    <edge id=":32475337_1" function="internal">
        <lane id=":32475337_1_0" index="0" speed="27.78" length="5.78" shape="750.32,447.84 744.50,445.97"/>
        <lane id=":32475337_1_1" index="1" speed="27.78" length="5.78" shape="751.11,444.63 745.61,442.86"/>
        <lane id=":32475337_1_2" index="2" speed="27.78" length="5.78" shape="751.90,441.43 746.71,439.75"/>
    </edge>
    <edge id=":32475451_0" function="internal">
        <lane id=":32475451_0_0" index="0" speed="20.63" length="0.58" shape="832.74,400.93 832.78,400.93 832.88,400.96 833.06,401.01 833.29,401.10"/>
    </edge>
    <edge id=":32475451_1" function="internal">
        <lane id=":32475451_1_0" index="0" speed="16.67" length="3.55" shape="835.90,401.87 837.23,398.18"/>
        <lane id=":32475451_1_1" index="1" speed="16.67" length="3.55" shape="839.07,402.81 840.27,399.47"/>
        <lane id=":32475451_1_2" index="2" speed="16.67" length="3.55" shape="842.23,403.75 843.31,400.76"/>
    </edge>
    <edge id=":32475469_0" function="internal">
        <lane id=":32475469_0_0" index="0" speed="27.78" length="3.00" shape="299.44,287.88 296.66,286.90"/>
        <lane id=":32475469_0_1" index="1" speed="27.78" length="3.00" shape="300.51,284.77 297.69,283.76"/>
        <lane id=":32475469_0_2" index="2" speed="27.78" length="3.00" shape="301.59,281.65 298.71,280.63"/>
    </edge>
    <edge id=":32475469_3" function="internal">
        <lane id=":32475469_3_0" index="0" speed="26.19" length="0.13" shape="295.60,290.16 295.64,290.04"/>
    </edge>
    <edge id=":32475475_0" function="internal">
        <lane id=":32475475_0_0" index="0" speed="24.60" length="4.05" shape="750.21,272.43 751.16,268.22"/>
        <lane id=":32475475_0_1" index="1" speed="24.60" length="4.05" shape="751.68,275.39 752.74,271.12"/>
        <lane id=":32475475_0_2" index="2" speed="24.60" length="4.05" shape="751.68,275.39 754.32,274.01"/>
        <lane id=":32475475_0_3" index="3" speed="24.60" length="4.05" shape="751.68,275.39 755.91,276.91"/>
    </edge>
    <edge id=":32475485_0" function="internal">
        <lane id=":32475485_0_0" index="0" speed="26.19" length="1.59" shape="259.48,201.40 260.10,199.93"/>
        <lane id=":32475485_0_1" index="1" speed="26.19" length="1.59" shape="258.32,204.49 258.88,203.00"/>
    </edge>
    <edge id=":32475485_2" function="internal">
        <lane id=":32475485_2_0" index="0" speed="27.78" length="0.10" shape="257.16,207.58 257.19,207.49"/>
        <lane id=":32475485_2_1" index="1" speed="27.78" length="0.10" shape="256.00,210.67 256.03,210.58"/>
        <lane id=":32475485_2_2" index="2" speed="27.78" length="0.10" shape="254.84,213.76 254.87,213.67"/>
    </edge>
    <edge id=":36921389#0-AddedOffRampNode_0" function="internal">
        <lane id=":36921389#0-AddedOffRampNode_0_0" index="0" speed="27.78" length="3.36" shape="1522.91,710.33 1519.02,712.45"/>
        <lane id=":36921389#0-AddedOffRampNode_0_1" index="1" speed="27.78" length="3.36" shape="1522.91,710.33 1520.08,709.32"/>
        <lane id=":36921389#0-AddedOffRampNode_0_2" index="2" speed="27.78" length="3.36" shape="1523.96,707.21 1521.14,706.20"/>
        <lane id=":36921389#0-AddedOffRampNode_0_3" index="3" speed="27.78" length="3.36" shape="1525.02,704.08 1522.19,703.07"/>
    </edge>
    <edge id=":36921465#1-AddedOnRampNode_0" function="internal">
        <lane id=":36921465#1-AddedOnRampNode_0_0" index="0" speed="27.78" length="3.00" shape="1402.50,602.74 1405.35,603.65"/>
        <lane id=":36921465#1-AddedOnRampNode_0_1" index="1" speed="27.78" length="3.00" shape="1401.44,605.87 1404.30,606.78"/>
        <lane id=":36921465#1-AddedOnRampNode_0_2" index="2" speed="27.78" length="3.00" shape="1400.38,608.99 1403.24,609.91"/>
    </edge>
    <edge id=":428861113_0" function="internal">
        <lane id=":428861113_0_0" index="0" speed="13.40" length="9.22" shape="289.34,462.06 294.05,469.82"/>
        <lane id=":428861113_0_1" index="1" speed="13.40" length="9.22" shape="286.44,463.64 291.31,471.65"/>
    </edge>
    <edge id=":428861113_2" function="internal">
        <lane id=":428861113_2_0" index="0" speed="13.40" length="6.52" shape="286.44,463.64 287.60,466.15 288.08,468.19 287.88,469.75 287.00,470.84"/>
        <lane id=":428861113_2_1" index="1" speed="13.40" length="6.52" shape="286.44,463.64 286.89,464.89 286.81,466.05 286.22,467.13 285.11,468.13"/>
    </edge>
    <edge id=":428861126_0" function="internal">
        <lane id=":428861126_0_0" index="0" speed="13.40" length="5.10" shape="320.16,570.85 319.89,572.18 320.13,573.30 320.87,574.20 322.13,574.88"/>
    </edge>
    <edge id=":428861126_1" function="internal">
        <lane id=":428861126_1_0" index="0" speed="13.40" length="10.48" shape="320.16,570.85 319.11,573.76 318.40,575.76 317.71,577.76 316.72,580.70"/>
        <lane id=":428861126_1_1" index="1" speed="13.40" length="10.48" shape="317.06,569.72 316.00,572.65 315.28,574.66 314.59,576.68 313.59,579.64"/>
    </edge>
    <edge id=":428861126_3" function="internal">
        <lane id=":428861126_3_0" index="0" speed="13.40" length="11.47" shape="311.11,572.29 314.23,573.48 316.11,574.90 317.96,576.43 320.97,577.97"/>
    </edge>
    <edge id=":428861126_4" function="internal">
        <lane id=":428861126_4_0" index="0" speed="13.40" length="8.57" shape="311.11,572.29 314.38,573.55 316.41,575.37 317.19,577.75 316.72,580.70"/>
        <lane id=":428861126_4_1" index="1" speed="13.40" length="8.57" shape="311.11,575.69 312.58,576.27 313.49,577.12 313.83,578.24 313.59,579.64"/>
    </edge>
    <edge id=":428861282_0" function="internal">
        <lane id=":428861282_0_0" index="0" speed="13.40" length="9.59" shape="404.28,650.42 410.77,657.51"/>
        <lane id=":428861282_0_1" index="1" speed="13.40" length="9.59" shape="401.86,652.66 408.32,659.73"/>
    </edge>
    <edge id=":428861282_2" function="internal">
        <lane id=":428861282_2_0" index="0" speed="13.40" length="6.89" shape="401.86,652.66 403.57,654.82 404.49,656.74 404.61,658.41 403.94,659.84"/>
        <lane id=":428861282_2_1" index="1" speed="13.40" length="6.89" shape="401.86,652.66 402.56,653.78 402.72,655.00 402.33,656.32 401.39,657.75"/>
    </edge>
    <edge id=":429376934_0" function="internal">
        <lane id=":429376934_0_0" index="0" speed="24.60" length="3.42" shape="1232.14,616.80 1228.80,617.58"/>
        <lane id=":429376934_0_1" index="1" speed="24.60" length="3.42" shape="1232.14,616.80 1229.69,614.40"/>
    </edge>
    <edge id=":4407689955_0" function="internal">
        <lane id=":4407689955_0_0" index="0" speed="26.19" length="3.17" shape="1308.79,567.43 1311.73,568.60"/>
    </edge>
    <edge id=":4407689955_1" function="internal">
        <lane id=":4407689955_1_0" index="0" speed="27.78" length="2.73" shape="1308.11,570.81 1310.68,571.73"/>
        <lane id=":4407689955_1_1" index="1" speed="27.78" length="2.73" shape="1307.05,573.94 1309.62,574.86"/>
        <lane id=":4407689955_1_2" index="2" speed="27.78" length="2.73" shape="1306.00,577.07 1308.57,577.99"/>
    </edge>
    <edge id=":cluster_1367509310_32475127_0" function="internal">
        <lane id=":cluster_1367509310_32475127_0_0" index="0" speed="20.63" length="7.89" shape="793.42,608.88 792.03,608.59 790.91,608.81 790.05,609.55 789.47,610.81"/>
        <lane id=":cluster_1367509310_32475127_0_1" index="1" speed="20.63" length="7.89" shape="794.64,605.82 791.71,605.19 789.34,605.66 787.54,607.21 786.31,609.86"/>
    </edge>
    <edge id=":cluster_1367509310_32475127_2" function="internal">
        <lane id=":cluster_1367509310_32475127_2_0" index="0" speed="20.63" length="21.01" shape="795.86,602.75 786.94,599.29 780.73,596.38 777.23,594.03 776.43,592.23"/>
        <lane id=":cluster_1367509310_32475127_2_1" index="1" speed="20.63" length="21.01" shape="795.86,602.75 788.30,599.78 783.05,597.23 780.13,595.09 779.53,593.37"/>
    </edge>
    <edge id=":cluster_1367509310_32475127_4" function="internal">
        <lane id=":cluster_1367509310_32475127_4_0" index="0" speed="16.67" length="13.14" shape="793.39,598.49 792.16,602.12 791.34,604.62 790.57,607.13 789.47,610.81"/>
        <lane id=":cluster_1367509310_32475127_4_1" index="1" speed="16.67" length="13.14" shape="790.30,597.35 789.04,601.04 788.21,603.57 787.42,606.12 786.31,609.86"/>
        <lane id=":cluster_1367509310_32475127_4_2" index="2" speed="16.67" length="13.14" shape="787.20,596.20 785.93,599.95 785.08,602.53 784.28,605.12 783.14,608.92"/>
    </edge>
    <edge id=":cluster_1367509310_32475127_7" function="internal">
        <lane id=":cluster_1367509310_32475127_7_0" index="0" speed="16.67" length="9.03" shape="787.20,596.20 784.22,598.37 781.95,598.62 780.39,596.95 780.21,596.20"/>
    </edge>
    <edge id=":cluster_1367509310_32475127_12" function="internal">
        <lane id=":cluster_1367509310_32475127_12_0" index="0" speed="16.67" length="2.91" shape="780.21,596.20 779.53,593.37"/>
    </edge>
    <edge id=":cluster_1367509310_32475127_8" function="internal">
        <lane id=":cluster_1367509310_32475127_8_0" index="0" speed="16.67" length="14.08" shape="768.81,604.64 770.09,600.59 770.96,597.82 771.89,595.07 773.34,591.08"/>
        <lane id=":cluster_1367509310_32475127_8_1" index="1" speed="16.67" length="14.08" shape="771.97,605.58 773.23,601.60 774.09,598.87 775.01,596.16 776.43,592.23"/>
        <lane id=":cluster_1367509310_32475127_8_2" index="2" speed="16.67" length="14.08" shape="775.14,606.53 776.38,602.60 777.22,599.91 778.13,597.24 779.53,593.37"/>
    </edge>
    <edge id=":cluster_1367509310_32475127_11" function="internal">
        <lane id=":cluster_1367509310_32475127_11_0" index="0" speed="16.67" length="9.32" shape="775.14,606.53 778.03,604.12 780.34,603.72 782.04,605.32 782.30,606.16"/>
    </edge>
    <edge id=":cluster_1367509310_32475127_13" function="internal">
        <lane id=":cluster_1367509310_32475127_13_0" index="0" speed="16.67" length="2.88" shape="782.30,606.16 783.14,608.92"/>
    </edge>
    <edge id=":cluster_1367509312_1367509313_1367509315_0" function="internal">
        <lane id=":cluster_1367509312_1367509313_1367509315_0_0" index="0" speed="15.03" length="9.77" shape="764.99,707.12 761.37,706.27 758.65,706.08 756.83,706.54 755.91,707.66"/>
    </edge>
    <edge id=":cluster_1367509312_1367509313_1367509315_1" function="internal">
        <lane id=":cluster_1367509312_1367509313_1367509315_1_0" index="0" speed="15.03" length="31.13" shape="764.99,707.12 755.12,703.20 748.86,698.17 746.21,692.05 747.17,684.83"/>
        <lane id=":cluster_1367509312_1367509313_1367509315_1_1" index="1" speed="15.03" length="31.13" shape="764.99,707.12 756.51,703.61 751.23,698.91 749.15,693.02 750.28,685.94"/>
    </edge>
    <edge id=":cluster_1367509312_1367509313_1367509315_3" function="internal">
        <lane id=":cluster_1367509312_1367509313_1367509315_3_0" index="0" speed="13.40" length="15.20" shape="764.99,707.12 761.54,702.94 760.97,699.63 763.27,697.18 766.19,696.30"/>
    </edge>
    <edge id=":cluster_1367509312_1367509313_1367509315_14" function="internal">
        <lane id=":cluster_1367509312_1367509313_1367509315_14_0" index="0" speed="13.40" length="2.37" shape="766.19,696.30 768.46,695.61"/>
    </edge>
    <edge id=":cluster_1367509312_1367509313_1367509315_4" function="internal">
        <lane id=":cluster_1367509312_1367509313_1367509315_4_0" index="0" speed="15.03" length="5.06" shape="766.46,691.69 766.20,693.06 766.45,694.17 767.20,695.02 768.46,695.61"/>
    </edge>
    <edge id=":cluster_1367509312_1367509313_1367509315_5" function="internal">
        <lane id=":cluster_1367509312_1367509313_1367509315_5_0" index="0" speed="16.67" length="18.69" shape="763.35,690.58 761.33,695.73 759.60,699.11 757.88,702.50 755.91,707.66"/>
        <lane id=":cluster_1367509312_1367509313_1367509315_5_1" index="1" speed="16.67" length="18.69" shape="760.24,689.47 758.21,694.64 756.47,698.04 754.75,701.45 752.77,706.63"/>
    </edge>
    <edge id=":cluster_1367509312_1367509313_1367509315_7" function="internal">
        <lane id=":cluster_1367509312_1367509313_1367509315_7_0" index="0" speed="16.67" length="3.41" shape="754.02,687.26 752.59,688.33 751.48,688.47 751.13,688.10"/>
    </edge>
    <edge id=":cluster_1367509312_1367509313_1367509315_15" function="internal">
        <lane id=":cluster_1367509312_1367509313_1367509315_15_0" index="0" speed="16.67" length="2.38" shape="751.13,688.10 750.72,687.67 750.28,685.94"/>
    </edge>
    <edge id=":cluster_1367509312_1367509313_1367509315_8" function="internal">
        <lane id=":cluster_1367509312_1367509313_1367509315_8_0" index="0" speed="16.67" length="19.11" shape="733.26,700.22 735.24,694.88 736.99,691.38 738.80,687.90 740.95,682.62"/>
        <lane id=":cluster_1367509312_1367509313_1367509315_8_1" index="1" speed="16.67" length="19.11" shape="736.40,701.25 738.37,695.94 740.12,692.45 741.92,688.98 744.06,683.73"/>
        <lane id=":cluster_1367509312_1367509313_1367509315_8_2" index="2" speed="16.67" length="19.11" shape="739.53,702.28 741.50,696.99 743.24,693.52 745.04,690.07 747.17,684.83"/>
        <lane id=":cluster_1367509312_1367509313_1367509315_8_3" index="3" speed="16.67" length="19.11" shape="742.67,703.31 744.63,698.04 746.36,694.59 748.16,691.15 750.28,685.94"/>
    </edge>
    <edge id=":cluster_1367509312_1367509313_1367509315_12" function="internal">
        <lane id=":cluster_1367509312_1367509313_1367509315_12_0" index="0" speed="15.03" length="15.25" shape="745.80,704.34 748.92,698.47 753.73,695.06 756.40,694.67"/>
    </edge>
    <edge id=":cluster_1367509312_1367509313_1367509315_13" function="internal">
        <lane id=":cluster_1367509312_1367509313_1367509315_13_0" index="0" speed="16.67" length="8.02" shape="745.80,704.34 748.41,702.30 750.43,702.00 751.89,703.45 752.05,704.03"/>
    </edge>
    <edge id=":cluster_1367509312_1367509313_1367509315_16" function="internal">
        <lane id=":cluster_1367509312_1367509313_1367509315_16_0" index="0" speed="15.03" length="12.23" shape="756.40,694.67 760.24,694.10 768.46,695.61"/>
    </edge>
    <edge id=":cluster_1367509312_1367509313_1367509315_17" function="internal">
        <lane id=":cluster_1367509312_1367509313_1367509315_17_0" index="0" speed="16.67" length="2.70" shape="752.05,704.03 752.77,706.63"/>
    </edge>
    <edge id=":cluster_32475110_32475484_0" function="internal">
        <lane id=":cluster_32475110_32475484_0_0" index="0" speed="17.90" length="10.52" shape="916.41,236.78 915.38,240.62 915.07,243.54 915.49,245.54 916.62,246.62"/>
    </edge>
    <edge id=":cluster_32475110_32475484_1" function="internal">
        <lane id=":cluster_32475110_32475484_1_0" index="0" speed="17.90" length="16.89" shape="916.41,236.78 914.86,241.59 913.79,244.88 912.72,248.17 911.16,252.98"/>
        <lane id=":cluster_32475110_32475484_1_1" index="1" speed="17.90" length="16.89" shape="913.24,235.85 911.70,240.63 910.64,243.90 909.58,247.18 908.02,251.95"/>
        <lane id=":cluster_32475110_32475484_1_2" index="2" speed="17.90" length="16.89" shape="910.07,234.91 908.54,239.67 907.49,242.92 906.43,246.18 904.88,250.93"/>
        <lane id=":cluster_32475110_32475484_1_3" index="3" speed="17.90" length="16.89" shape="906.91,233.98 905.38,238.71 904.34,241.95 903.29,245.18 901.74,249.91"/>
    </edge>
    <edge id=":cluster_32475110_32475484_5" function="internal">
        <lane id=":cluster_32475110_32475484_5_0" index="0" speed="17.90" length="8.63" shape="906.91,233.98 904.23,236.21 902.10,236.59 900.52,235.12 900.28,234.34"/>
    </edge>
    <edge id=":cluster_32475110_32475484_14" function="internal">
        <lane id=":cluster_32475110_32475484_14_0" index="0" speed="17.90" length="2.67" shape="900.28,234.34 899.49,231.78"/>
    </edge>
    <edge id=":cluster_32475110_32475484_6" function="internal">
        <lane id=":cluster_32475110_32475484_6_0" index="0" speed="21.25" length="30.85" shape="889.47,232.52 899.40,235.68 906.95,239.94 912.54,244.02 916.62,246.62"/>
    </edge>
    <edge id=":cluster_32475110_32475484_7" function="internal">
        <lane id=":cluster_32475110_32475484_7_0" index="0" speed="21.25" length="4.22" shape="888.84,235.76 891.45,235.86 892.96,235.31"/>
    </edge>
    <edge id=":cluster_32475110_32475484_8" function="internal">
        <lane id=":cluster_32475110_32475484_8_0" index="0" speed="21.25" length="20.09" shape="888.21,239.00 896.51,241.15 902.05,243.85 904.84,247.12 904.88,250.93"/>
        <lane id=":cluster_32475110_32475484_8_1" index="1" speed="21.25" length="20.09" shape="887.58,242.24 894.35,243.85 898.96,245.67 901.43,247.69 901.74,249.91"/>
    </edge>
    <edge id=":cluster_32475110_32475484_15" function="internal">
        <lane id=":cluster_32475110_32475484_15_0" index="0" speed="21.25" length="5.78" shape="892.96,235.31 893.56,235.08 895.19,233.41 896.32,230.85"/>
    </edge>
    <edge id=":cluster_32475110_32475484_10" function="internal">
        <lane id=":cluster_32475110_32475484_10_0" index="0" speed="17.28" length="16.58" shape="889.80,246.01 891.59,241.45 893.17,238.46 894.68,235.46 896.32,230.85"/>
        <lane id=":cluster_32475110_32475484_10_1" index="1" speed="17.28" length="16.58" shape="892.93,247.03 894.74,242.45 896.32,239.44 897.84,236.42 899.49,231.78"/>
    </edge>
    <edge id=":cluster_32475110_32475484_12" function="internal">
        <lane id=":cluster_32475110_32475484_12_0" index="0" speed="17.28" length="8.03" shape="896.07,248.06 898.46,244.68 902.16,243.48"/>
    </edge>
    <edge id=":cluster_32475110_32475484_13" function="internal">
        <lane id=":cluster_32475110_32475484_13_0" index="0" speed="17.28" length="5.90" shape="896.07,248.06 898.18,246.39 899.83,246.15 900.93,247.23"/>
    </edge>
    <edge id=":cluster_32475110_32475484_16" function="internal">