<?xml version="1.0" encoding="UTF-8"?>

<!-- generated on 02/27/19 09:08:23 by Eclipse SUMO netedit Version 1.1.0
<configuration xmlns:xsi="http://www.w3.org/2001/XMLSchema-instance" xsi:noNamespaceSchemaLocation="http://sumo.dlr.de/xsd/netconvertConfiguration.xsd">

    <input>
        <sumo-net-file value="C:\Users\sunny\Documents\moe-analyzer\samples\roundabout\osm.net.xml"/>
    </input>

    <output>
        <output-file value="C:\Users\sunny\Documents\moe-analyzer\samples\roundabout\osm.net.xml"/>
        <output.street-names value="true"/>
    </output>

    <processing>
        <geometry.max-grade.fix value="false"/>
        <offset.disable-normalization value="true"/>
        <lefthand value="false"/>
    </processing>

    <junctions>
        <no-turnarounds value="true"/>
        <junctions.corner-detail value="5"/>
        <junctions.limit-turn-speed value="5.5"/>
        <rectangular-lane-cut value="false"/>
    </junctions>

    <pedestrian>
        <walkingareas value="false"/>
    </pedestrian>

</configuration>
-->

<net version="1.1" junctionCornerDetail="5" limitTurnSpeed="5.50" xmlns:xsi="http://www.w3.org/2001/XMLSchema-instance" xsi:noNamespaceSchemaLocation="http://sumo.dlr.de/xsd/net_file.xsd">

    <location netOffset="-534647.17,-4806985.42" convBoundary="1336.53,538.95,1847.60,1289.73" origBoundary="-80.572008,43.414881,-80.540578,43.434376" projParameter="+proj=utm +zone=17 +ellps=WGS84 +datum=WGS84 +units=m +no_defs"/>

    <type id="highway.bridleway" priority="1" numLanes="1" speed="2.78" allow="pedestrian" oneway="1" width="2.00"/>
    <type id="highway.bus_guideway" priority="1" numLanes="1" speed="27.78" allow="bus" oneway="1"/>
    <type id="highway.cycleway" priority="1" numLanes="1" speed="8.33" allow="bicycle" oneway="0" width="1.00"/>
    <type id="highway.footway" priority="1" numLanes="1" speed="2.78" allow="pedestrian" oneway="1" width="2.00"/>
    <type id="highway.ford" priority="1" numLanes="1" speed="2.78" allow="army" oneway="0"/>
    <type id="highway.living_street" priority="3" numLanes="1" speed="2.78" disallow="tram rail_urban rail rail_electric ship" oneway="0"/>
    <type id="highway.motorway" priority="13" numLanes="2" speed="44.44" allow="private emergency authority army vip passenger hov taxi bus coach delivery truck trailer motorcycle evehicle custom1 custom2" oneway="1"/>
    <type id="highway.motorway_link" priority="12" numLanes="1" speed="22.22" allow="private emergency authority army vip passenger hov taxi bus coach delivery truck trailer motorcycle evehicle custom1 custom2" oneway="1"/>
    <type id="highway.path" priority="1" numLanes="1" speed="2.78" allow="bicycle pedestrian" oneway="1" width="2.00"/>
    <type id="highway.pedestrian" priority="1" numLanes="1" speed="2.78" allow="pedestrian" oneway="1" width="2.00"/>
    <type id="highway.primary" priority="9" numLanes="2" speed="27.78" disallow="tram rail_urban rail rail_electric ship" oneway="0"/>
    <type id="highway.primary_link" priority="8" numLanes="1" speed="22.22" disallow="tram rail_urban rail rail_electric ship" oneway="0"/>
    <type id="highway.raceway" priority="14" numLanes="2" speed="83.33" allow="vip" oneway="0"/>
    <type id="highway.residential" priority="4" numLanes="1" speed="13.89" disallow="tram rail_urban rail rail_electric ship" oneway="0"/>
    <type id="highway.secondary" priority="7" numLanes="2" speed="27.78" disallow="tram rail_urban rail rail_electric ship" oneway="0"/>
    <type id="highway.secondary_link" priority="6" numLanes="1" speed="22.22" disallow="tram rail_urban rail rail_electric ship" oneway="0"/>
    <type id="highway.service" priority="2" numLanes="1" speed="5.56" allow="delivery bicycle pedestrian" oneway="0"/>
    <type id="highway.stairs" priority="1" numLanes="1" speed="1.39" allow="pedestrian" oneway="1" width="2.00"/>
    <type id="highway.step" priority="1" numLanes="1" speed="1.39" allow="pedestrian" oneway="1" width="2.00"/>
    <type id="highway.steps" priority="1" numLanes="1" speed="1.39" allow="pedestrian" oneway="1" width="2.00"/>
    <type id="highway.tertiary" priority="6" numLanes="1" speed="22.22" disallow="tram rail_urban rail rail_electric ship" oneway="0"/>
    <type id="highway.tertiary_link" priority="5" numLanes="1" speed="22.22" disallow="tram rail_urban rail rail_electric ship" oneway="0"/>
    <type id="highway.track" priority="1" numLanes="1" speed="5.56" disallow="tram rail_urban rail rail_electric ship" oneway="0"/>
    <type id="highway.trunk" priority="11" numLanes="2" speed="27.78" disallow="tram rail_urban rail rail_electric bicycle pedestrian ship" oneway="0"/>
    <type id="highway.trunk_link" priority="10" numLanes="1" speed="22.22" disallow="tram rail_urban rail rail_electric bicycle pedestrian ship" oneway="0"/>
    <type id="highway.unclassified" priority="5" numLanes="1" speed="13.89" disallow="tram rail_urban rail rail_electric ship" oneway="0"/>
    <type id="highway.unsurfaced" priority="1" numLanes="1" speed="8.33" disallow="tram rail_urban rail rail_electric ship" oneway="0"/>
    <type id="railway.light_rail" priority="15" numLanes="1" speed="27.78" allow="rail_urban" oneway="1"/>
    <type id="railway.preserved" priority="15" numLanes="1" speed="27.78" allow="rail" oneway="1"/>
    <type id="railway.rail" priority="15" numLanes="1" speed="83.33" allow="rail rail_electric" oneway="1"/>
    <type id="railway.subway" priority="15" numLanes="1" speed="27.78" allow="rail_urban" oneway="1"/>
    <type id="railway.tram" priority="15" numLanes="1" speed="13.89" allow="tram" oneway="1"/>

    <edge id=":1019435766_0" function="internal">
        <lane id=":1019435766_0_0" index="0" disallow="tram rail_urban rail rail_electric ship" speed="27.78" length="13.91" shape="1575.15,889.65 1578.15,892.35 1580.39,893.99 1582.75,895.47 1586.13,897.72"/>
        <lane id=":1019435766_0_1" index="1" disallow="tram rail_urban rail rail_electric ship" speed="27.78" length="13.91" shape="1575.15,889.65 1577.91,892.81 1579.46,895.30 1581.15,897.65 1584.29,900.34"/>
    </edge>
    <edge id=":1019435766_2" function="internal">
        <lane id=":1019435766_2_0" index="0" disallow="tram rail_urban rail rail_electric ship" speed="11.86" length="14.58" shape="1575.15,889.65 1577.85,892.74 1579.71,896.00 1580.73,899.44 1580.91,903.06"/>
        <lane id=":1019435766_2_1" index="1" disallow="tram rail_urban rail rail_electric ship" speed="11.48" length="14.58" shape="1572.93,891.96 1575.16,894.62 1576.68,897.65 1577.49,901.03 1577.59,904.78"/>
    </edge>
    <edge id=":1019435770_0" function="internal">
        <lane id=":1019435770_0_0" index="0" disallow="tram rail_urban rail rail_electric ship" speed="10.28" length="9.86" shape="1534.75,891.53 1537.36,891.44 1539.26,891.40 1540.91,890.87 1542.76,889.28"/>
        <lane id=":1019435770_0_1" index="1" disallow="tram rail_urban rail rail_electric ship" speed="11.53" length="9.86" shape="1535.07,894.72 1538.37,894.53 1540.75,894.34 1542.80,893.52 1545.13,891.43"/>
    </edge>
    <edge id=":1019435770_2" function="internal">
        <lane id=":1019435770_2_0" index="0" disallow="tram rail_urban rail rail_electric ship" speed="27.78" length="10.05" shape="1537.55,898.22 1538.82,895.39 1539.69,893.43 1540.79,891.63 1542.76,889.28"/>
        <lane id=":1019435770_2_1" index="1" disallow="tram rail_urban rail rail_electric ship" speed="12.54" length="10.05" shape="1540.55,899.63 1541.07,896.87 1541.88,895.08 1543.17,893.52 1545.13,891.43"/>
    </edge>
    <edge id=":1838091336_0" function="internal">
        <lane id=":1838091336_0_0" index="0" disallow="tram rail_urban rail rail_electric ship" speed="23.61" length="18.47" shape="1619.53,923.73 1616.04,922.70 1612.14,922.27 1607.48,921.70 1601.70,920.22"/>
        <lane id=":1838091336_0_1" index="1" disallow="tram rail_urban rail rail_electric ship" speed="23.61" length="18.47" shape="1619.53,923.73 1616.14,922.20 1612.43,920.68 1607.91,918.99 1602.08,916.97"/>
    </edge>
    <edge id=":1838091336_2" function="internal">
        <lane id=":1838091336_2_0" index="0" disallow="tram rail_urban rail rail_electric ship" speed="3.65" length="2.45" shape="1619.53,923.73 1618.78,922.50 1618.75,921.60 1618.85,921.53"/>
    </edge>
    <edge id=":1838091336_4" function="internal">
        <lane id=":1838091336_4_0" index="0" disallow="tram rail_urban rail rail_electric ship" speed="3.65" length="2.22" shape="1618.85,921.53 1619.46,921.05 1620.88,920.83"/>
    </edge>
    <edge id=":1838091336_3" function="internal">
        <lane id=":1838091336_3_0" index="0" disallow="tram rail_urban rail rail_electric ship" speed="23.61" length="18.34" shape="1606.33,909.75 1610.88,913.72 1614.49,916.75 1617.67,919.05 1620.88,920.83"/>
    </edge>
    <edge id=":1838091359_0" function="internal">
        <lane id=":1838091359_0_0" index="0" disallow="tram rail_urban rail rail_electric ship" speed="16.67" length="9.38" shape="1566.94,936.99 1566.37,939.41 1566.07,941.09 1565.97,942.79 1565.97,945.27"/>
        <lane id=":1838091359_0_1" index="1" disallow="tram rail_urban rail rail_electric ship" speed="16.67" length="9.38" shape="1566.94,936.99 1565.82,939.54 1564.43,941.10 1563.25,942.68 1562.77,945.30"/>
        <lane id=":1838091359_0_2" index="2" disallow="tram rail_urban rail rail_electric ship" speed="16.67" length="9.38" shape="1563.84,936.23 1562.66,939.00 1561.24,940.72 1560.05,942.47 1559.57,945.33"/>
    </edge>
    <edge id=":1838330881_0" function="internal">
        <lane id=":1838330881_0_0" index="0" disallow="tram rail_urban rail rail_electric ship" speed="27.78" length="0.30" shape="1509.42,898.33 1509.14,898.22"/>
        <lane id=":1838330881_0_1" index="1" disallow="tram rail_urban rail rail_electric ship" speed="27.78" length="0.30" shape="1510.66,895.38 1510.38,895.27"/>
    </edge>
    <edge id=":286892903_0" function="internal">
        <lane id=":286892903_0_0" index="0" disallow="tram rail_urban rail rail_electric ship" speed="14.50" length="11.84" shape="1567.55,878.01 1568.40,881.23 1569.28,883.38 1570.66,885.24 1573.01,887.59"/>
        <lane id=":286892903_0_1" index="1" disallow="tram rail_urban rail rail_electric ship" speed="15.16" length="11.84" shape="1564.62,879.50 1565.58,883.01 1566.61,885.33 1568.19,887.33 1570.79,889.90"/>
    </edge>
    <edge id=":286892903_2" function="internal">
        <lane id=":286892903_2_0" index="0" disallow="tram rail_urban rail rail_electric ship" speed="20.09" length="11.71" shape="1561.88,882.61 1565.43,883.64 1567.96,884.27 1570.22,885.31 1573.01,887.59"/>
        <lane id=":286892903_2_1" index="1" disallow="tram rail_urban rail rail_electric ship" speed="18.95" length="11.71" shape="1560.83,885.64 1564.00,886.52 1566.27,887.02 1568.31,887.90 1570.79,889.90"/>
    </edge>
    <edge id=":286892906_0" function="internal">
        <lane id=":286892906_0_0" index="0" disallow="tram rail_urban rail rail_electric ship" speed="16.67" length="6.30" shape="1566.54,1002.56 1567.11,1004.42 1567.82,1005.63 1568.41,1006.84 1568.63,1008.73"/>
        <lane id=":286892906_0_1" index="1" disallow="tram rail_urban rail rail_electric ship" speed="16.67" length="6.30" shape="1563.39,1003.12 1563.93,1004.80 1564.62,1005.88 1565.20,1006.97 1565.43,1008.68"/>
    </edge>
    <edge id=":286892907_0" function="internal">
        <lane id=":286892907_0_0" index="0" disallow="tram rail_urban rail rail_electric ship" speed="14.91" length="20.34" shape="1583.58,917.14 1578.05,919.27 1574.55,921.58 1571.96,924.94 1569.13,930.20"/>
    </edge>
    <edge id=":286892907_1" function="internal">
        <lane id=":286892907_1_0" index="0" disallow="tram rail_urban rail rail_electric ship" speed="27.78" length="22.58" shape="1583.58,917.14 1577.76,919.51 1573.46,921.76 1569.09,923.77 1563.08,925.42"/>
        <lane id=":286892907_1_1" index="1" disallow="tram rail_urban rail rail_electric ship" speed="27.78" length="22.58" shape="1582.56,914.10 1576.61,916.49 1572.03,918.79 1567.38,920.85 1561.25,922.52"/>
    </edge>
    <edge id=":286892907_3" function="internal">
        <lane id=":286892907_3_0" index="0" disallow="tram rail_urban rail rail_electric ship" speed="22.23" length="22.81" shape="1579.80,910.55 1576.77,916.06 1573.36,919.79 1569.79,923.45 1566.28,928.75"/>
    </edge>
    <edge id=":286892907_4" function="internal">
        <lane id=":286892907_4_0" index="0" disallow="tram rail_urban rail rail_electric ship" speed="13.35" length="22.79" shape="1579.80,910.55 1576.88,916.20 1573.12,920.57 1568.52,923.64 1563.08,925.42"/>
        <lane id=":286892907_4_1" index="1" disallow="tram rail_urban rail rail_electric ship" speed="13.02" length="22.79" shape="1577.18,908.48 1574.42,913.80 1570.84,917.92 1566.45,920.82 1561.25,922.52"/>
    </edge>
    <edge id=":286892930_0" function="internal">
        <lane id=":286892930_0_0" index="0" disallow="tram rail_urban rail rail_electric ship" speed="22.23" length="12.11" shape="1542.85,889.18 1545.04,886.40 1546.10,884.20 1546.85,881.79 1548.11,878.41"/>
    </edge>
    <edge id=":286892930_1" function="internal">
        <lane id=":286892930_1_0" index="0" disallow="tram rail_urban rail rail_electric ship" speed="22.23" length="12.69" shape="1542.85,889.18 1545.56,886.55 1547.60,884.85 1549.31,882.94 1551.05,879.68"/>
    </edge>
    <edge id=":286892930_2" function="internal">
        <lane id=":286892930_2_0" index="0" disallow="tram rail_urban rail rail_electric ship" speed="13.11" length="12.93" shape="1542.85,889.18 1545.56,886.31 1547.77,884.60 1550.37,883.64 1554.25,883.00"/>
        <lane id=":286892930_2_1" index="1" disallow="tram rail_urban rail rail_electric ship" speed="12.60" length="12.93" shape="1545.22,891.33 1547.76,888.74 1549.86,887.30 1552.33,886.54 1555.94,886.00"/>
    </edge>
    <edge id=":286892932_0" function="internal">
        <lane id=":286892932_0_0" index="0" disallow="tram rail_urban rail rail_electric ship" speed="22.23" length="14.95" shape="1549.64,930.63 1541.99,917.86"/>
        <lane id=":286892932_0_1" index="1" disallow="tram rail_urban rail rail_electric ship" speed="22.23" length="14.95" shape="1552.40,929.00 1544.68,916.13"/>
    </edge>
    <edge id=":286892932_2" function="internal">
        <lane id=":286892932_2_0" index="0" disallow="tram rail_urban rail rail_electric ship" speed="12.67" length="15.22" shape="1555.37,925.69 1551.00,924.56 1547.30,922.89 1544.30,920.65 1541.99,917.86"/>
        <lane id=":286892932_2_1" index="1" disallow="tram rail_urban rail rail_electric ship" speed="12.10" length="15.22" shape="1557.16,922.75 1552.89,921.72 1549.39,920.27 1546.65,918.41 1544.68,916.13"/>
    </edge>
    <edge id=":388003216_0" function="internal">
        <lane id=":388003216_0_0" index="0" disallow="tram rail_urban rail rail_electric ship" speed="3.65" length="4.67" shape="1848.10,1004.66 1848.99,1005.80 1849.12,1006.68 1848.49,1007.32 1847.10,1007.70"/>
    </edge>
    <edge id=":4492287982_0" function="internal">
        <lane id=":4492287982_0_0" index="0" disallow="tram rail_urban rail rail_electric ship" speed="19.44" length="0.10" shape="1811.80,995.97 1811.80,995.97"/>
    </edge>
    <edge id=":4492287982_1" function="internal">
        <lane id=":4492287982_1_0" index="0" disallow="tram rail_urban rail rail_electric ship" speed="3.65" length="2.34" shape="1811.80,995.97 1810.91,994.83 1810.78,993.95"/>
    </edge>
    <edge id=":4492287982_4" function="internal">
        <lane id=":4492287982_4_0" index="0" disallow="tram rail_urban rail rail_electric ship" speed="3.65" length="2.34" shape="1810.78,993.95 1811.41,993.31 1812.80,992.93"/>
    </edge>
    <edge id=":4492287982_2" function="internal">
        <lane id=":4492287982_2_0" index="0" disallow="tram rail_urban rail rail_electric ship" speed="19.44" length="0.10" shape="1812.80,992.93 1812.80,992.93"/>
    </edge>
    <edge id=":4492287982_3" function="internal">
        <lane id=":4492287982_3_0" index="0" disallow="tram rail_urban rail rail_electric ship" speed="3.65" length="2.34" shape="1812.80,992.93 1813.69,994.07 1813.82,994.95"/>
    </edge>
    <edge id=":4492287982_5" function="internal">
        <lane id=":4492287982_5_0" index="0" disallow="tram rail_urban rail rail_electric ship" speed="3.65" length="2.34" shape="1813.82,994.95 1813.19,995.59 1811.80,995.97"/>
    </edge>
    <edge id=":4492287988_0" function="internal">
        <lane id=":4492287988_0_0" index="0" disallow="tram rail_urban rail rail_electric ship" speed="19.44" length="0.30" shape="1676.09,948.70 1675.81,948.59"/>
    </edge>
    <edge id=":4492287988_1" function="internal">
        <lane id=":4492287988_1_0" index="0" disallow="tram rail_urban rail rail_electric ship" speed="3.65" length="2.34" shape="1676.09,948.70 1675.27,947.52 1675.19,946.62"/>
    </edge>
    <edge id=":4492287988_4" function="internal">
        <lane id=":4492287988_4_0" index="0" disallow="tram rail_urban rail rail_electric ship" speed="3.65" length="2.34" shape="1675.19,946.62 1675.86,946.03 1677.27,945.73"/>
    </edge>
    <edge id=":4492287988_2" function="internal">
        <lane id=":4492287988_2_0" index="0" disallow="tram rail_urban rail rail_electric ship" speed="19.44" length="0.30" shape="1676.99,945.62 1677.27,945.73"/>
    </edge>
    <edge id=":4492287988_3" function="internal">
        <lane id=":4492287988_3_0" index="0" disallow="tram rail_urban rail rail_electric ship" speed="3.65" length="2.34" shape="1676.99,945.62 1677.81,946.80 1677.89,947.69"/>
    </edge>
    <edge id=":4492287988_5" function="internal">
        <lane id=":4492287988_5_0" index="0" disallow="tram rail_urban rail rail_electric ship" speed="3.65" length="2.34" shape="1677.89,947.69 1677.22,948.29 1675.81,948.59"/>
    </edge>
    <edge id=":4492846232_0" function="internal">
        <lane id=":4492846232_0_0" index="0" disallow="tram rail_urban rail rail_electric ship" speed="16.67" length="7.96" shape="1555.84,953.34 1555.66,951.04 1555.14,949.50 1554.56,947.96 1554.23,945.66"/>
        <lane id=":4492846232_0_1" index="1" disallow="tram rail_urban rail rail_electric ship" speed="16.67" length="7.96" shape="1555.84,953.34 1556.16,951.00 1556.74,949.44 1557.26,947.88 1557.43,945.54"/>
    </edge>
    <edge id=":4689677624_0" function="internal">
        <lane id=":4689677624_0_0" index="0" disallow="tram rail_urban rail rail_electric ship" speed="19.44" length="0.10" shape="1369.15,840.13 1369.15,840.13"/>
    </edge>
    <edge id=":4689677624_1" function="internal">
        <lane id=":4689677624_1_0" index="0" disallow="tram rail_urban rail rail_electric ship" speed="3.65" length="2.34" shape="1369.15,840.13 1368.44,838.88 1368.44,837.98"/>
    </edge>
    <edge id=":4689677624_4" function="internal">
        <lane id=":4689677624_4_0" index="0" disallow="tram rail_urban rail rail_electric ship" speed="3.65" length="2.34" shape="1368.44,837.98 1369.16,837.45 1370.59,837.27"/>
    </edge>
    <edge id=":4689677624_2" function="internal">
        <lane id=":4689677624_2_0" index="0" disallow="tram rail_urban rail rail_electric ship" speed="19.44" length="0.10" shape="1370.59,837.27 1370.59,837.27"/>
    </edge>
    <edge id=":4689677624_3" function="internal">
        <lane id=":4689677624_3_0" index="0" disallow="tram rail_urban rail rail_electric ship" speed="3.65" length="2.34" shape="1370.59,837.27 1371.30,838.52 1371.30,839.42"/>
    </edge>
    <edge id=":4689677624_5" function="internal">
        <lane id=":4689677624_5_0" index="0" disallow="tram rail_urban rail rail_electric ship" speed="3.65" length="2.34" shape="1371.30,839.42 1370.58,839.95 1369.15,840.13"/>
    </edge>
    <edge id=":4689677626_0" function="internal">
        <lane id=":4689677626_0_0" index="0" disallow="tram rail_urban rail rail_electric ship" speed="19.44" length="0.10" shape="1435.46,866.55 1435.46,866.55"/>
    </edge>
    <edge id=":4689677626_1" function="internal">
        <lane id=":4689677626_1_0" index="0" disallow="tram rail_urban rail rail_electric ship" speed="3.65" length="2.34" shape="1435.46,866.55 1434.61,865.39 1434.51,864.50"/>
    </edge>
    <edge id=":4689677626_4" function="internal">
        <lane id=":4689677626_4_0" index="0" disallow="tram rail_urban rail rail_electric ship" speed="3.65" length="2.34" shape="1434.51,864.50 1435.16,863.89 1436.56,863.55"/>
    </edge>
    <edge id=":4689677626_2" function="internal">
        <lane id=":4689677626_2_0" index="0" disallow="tram rail_urban rail rail_electric ship" speed="19.44" length="0.10" shape="1436.56,863.55 1436.56,863.55"/>
    </edge>
    <edge id=":4689677626_3" function="internal">
        <lane id=":4689677626_3_0" index="0" disallow="tram rail_urban rail rail_electric ship" speed="3.65" length="2.34" shape="1436.56,863.55 1437.41,864.71 1437.51,865.60"/>
    </edge>
    <edge id=":4689677626_5" function="internal">
        <lane id=":4689677626_5_0" index="0" disallow="tram rail_urban rail rail_electric ship" speed="3.65" length="2.34" shape="1437.51,865.60 1436.86,866.21 1435.46,866.55"/>
    </edge>
    <edge id=":4689679661_0" function="internal">
        <lane id=":4689679661_0_0" index="0" disallow="tram rail_urban rail rail_electric ship" speed="3.65" length="4.67" shape="1335.81,823.38 1335.10,822.13 1335.10,821.23 1335.82,820.70 1337.25,820.52"/>
    </edge>
    <edge id=":4711921161_0" function="internal">
        <lane id=":4711921161_0_0" index="0" disallow="tram rail_urban rail rail_electric ship" speed="16.67" length="0.10" shape="1566.59,1139.35 1566.59,1139.25"/>
        <lane id=":4711921161_0_1" index="1" disallow="tram rail_urban rail rail_electric ship" speed="16.67" length="0.10" shape="1563.39,1139.29 1563.39,1139.39"/>
    </edge>
    <edge id=":4711921162_0" function="internal">
        <lane id=":4711921162_0_0" index="0" disallow="tram rail_urban rail rail_electric ship" speed="16.67" length="0.24" shape="1551.99,1140.07 1551.99,1139.77"/>
        <lane id=":4711921162_0_1" index="1" disallow="tram rail_urban rail rail_electric ship" speed="16.67" length="0.24" shape="1555.19,1139.97 1555.19,1139.79"/>
    </edge>
    <edge id=":4711921163_0" function="internal">
        <lane id=":4711921163_0_0" index="0" disallow="tram rail_urban rail rail_electric ship" speed="16.67" length="8.20" shape="1555.96,1016.29 1555.73,1013.89 1555.19,1012.29 1554.66,1010.68 1554.44,1008.28"/>
    </edge>
    <edge id=":481695367_0" function="internal">
        <lane id=":481695367_0_0" index="0" disallow="tram rail_urban rail rail_electric ship" speed="18.59" length="10.67" shape="1539.73,914.34 1537.84,911.89 1536.12,910.61 1534.10,909.62 1531.32,908.07"/>
    </edge>
    <edge id=":481695367_1" function="internal">
        <lane id=":481695367_1_0" index="0" disallow="tram rail_urban rail rail_electric ship" speed="19.19" length="11.39" shape="1539.73,914.34 1538.07,911.37 1537.02,909.22 1535.64,907.38 1533.03,905.37"/>
    </edge>
    <edge id=":481695367_2" function="internal">
        <lane id=":481695367_2_0" index="0" disallow="tram rail_urban rail rail_electric ship" speed="12.53" length="11.50" shape="1539.73,914.34 1537.85,911.31 1536.85,909.00 1536.58,906.53 1536.89,903.00"/>
        <lane id=":481695367_2_1" index="1" disallow="tram rail_urban rail rail_electric ship" speed="11.91" length="11.50" shape="1542.42,912.61 1540.78,909.87 1540.00,907.77 1539.87,905.51 1540.20,902.33"/>
    </edge>
    <edge id=":541208414_0" function="internal">
        <lane id=":541208414_0_0" index="0" disallow="tram rail_urban rail rail_electric ship" speed="23.61" length="23.80" shape="1491.52,890.85 1485.03,887.67 1479.40,884.32 1474.62,881.37 1470.68,879.40"/>
    </edge>
    <edge id=":541208414_1" function="internal">
        <lane id=":541208414_1_0" index="0" disallow="tram rail_urban rail rail_electric ship" speed="23.61" length="24.13" shape="1471.78,876.40 1476.10,877.41 1481.73,878.22 1488.25,879.31 1495.26,881.16"/>
        <lane id=":541208414_1_1" index="1" disallow="tram rail_urban rail rail_electric ship" speed="23.61" length="24.13" shape="1471.78,876.40 1494.72,884.34"/>
    </edge>
    <edge id=":541208414_3" function="internal">
        <lane id=":541208414_3_0" index="0" disallow="tram rail_urban rail rail_electric ship" speed="3.65" length="2.52" shape="1471.78,876.40 1472.63,877.56 1472.73,878.45 1472.60,878.57"/>
    </edge>
    <edge id=":541208414_4" function="internal">
        <lane id=":541208414_4_0" index="0" disallow="tram rail_urban rail rail_electric ship" speed="3.65" length="2.15" shape="1472.60,878.57 1472.08,879.06 1470.68,879.40"/>
    </edge>

    <edge id="-25601852#0" from="4492287988" to="1838091336" name="Highland Road West" priority="7" type="highway.secondary" shape="1676.54,947.16 1656.80,939.33 1616.11,920.37">
        <lane id="-25601852#0_0" index="0" disallow="tram rail_urban rail rail_electric ship" speed="19.44" length="61.55" shape="1675.81,948.59 1656.17,940.80 1619.53,923.73">
            <param key="origId" value="25601852"/>
        </lane>
    </edge>
    <edge id="-25601852#1" from="4492287982" to="4492287988" name="Highland Road West" priority="7" type="highway.secondary" shape="1812.30,994.45 1732.40,967.90 1692.61,953.55 1676.54,947.16">
        <lane id="-25601852#1_0" index="0" disallow="tram rail_urban rail rail_electric ship" speed="19.44" length="143.73" shape="1811.80,995.97 1731.88,969.41 1692.04,955.05 1676.09,948.70">
            <param key="origId" value="25601852"/>
        </lane>
    </edge>
    <edge id="-25601852#2" from="388003216" to="4492287982" name="Highland Road West" priority="7" type="highway.secondary">
        <lane id="-25601852#2_0" index="0" disallow="tram rail_urban rail rail_electric ship" speed="19.44" length="37.20" shape="1847.10,1007.70 1811.80,995.97">
            <param key="origId" value="25601852"/>
        </lane>
    </edge>
    <edge id="-26731075#3" from="4689677624" to="4689679661" name="Highland Road West" priority="7" type="highway.secondary">
        <lane id="-26731075#3_0" index="0" disallow="tram rail_urban rail rail_electric ship" speed="19.44" length="37.31" shape="1369.15,840.13 1335.81,823.38">
            <param key="origId" value="26731075"/>
        </lane>
    </edge>
    <edge id="-26731075#4" from="4689677626" to="4689677624" name="Highland Road West" priority="7" type="highway.secondary" shape="1436.01,865.05 1386.04,846.83 1369.87,838.70">
        <lane id="-26731075#4_0" index="0" disallow="tram rail_urban rail rail_electric ship" speed="19.44" length="71.47" shape="1435.46,866.55 1385.40,848.30 1369.15,840.13">
            <param key="origId" value="26731075"/>
        </lane>
    </edge>
    <edge id="-26731075#5" from="541208414" to="4689677626" name="Highland Road West" priority="7" type="highway.secondary">
        <lane id="-26731075#5_0" index="0" disallow="tram rail_urban rail rail_electric ship" speed="19.44" length="37.49" shape="1470.68,879.40 1435.46,866.55">
            <param key="origId" value="26731075"/>
        </lane>
    </edge>
    <edge id="172977260#0" from="481695367" to="1838330881" name="Highland Road West" priority="7" type="highway.secondary" spreadType="center" shape="1539.88,911.62 1529.43,904.98 1526.15,903.61 1509.90,896.80">
        <lane id="172977260#0_0" index="0" disallow="tram rail_urban rail rail_electric ship" speed="27.78" length="24.27" shape="1531.32,908.07 1528.69,906.40 1525.53,905.09 1509.42,898.33">
            <param key="origId" value="172977260"/>
        </lane>
        <lane id="172977260#0_1" index="1" disallow="tram rail_urban rail rail_electric ship" speed="27.78" length="24.27" shape="1533.03,905.37 1530.17,903.56 1526.77,902.13 1510.66,895.38">
            <param key="origId" value="172977260"/>
        </lane>
    </edge>
    <edge id="172977260#1" from="1838330881" to="541208414" name="Highland Road West" priority="7" type="highway.secondary" spreadType="center" shape="1509.90,896.80 1487.55,887.45 1475.34,879.40">
        <lane id="172977260#1_0" index="0" disallow="tram rail_urban rail rail_electric ship" speed="27.78" length="18.80" shape="1509.14,898.22 1491.52,890.85">
            <param key="origId" value="172977260"/>
        </lane>
        <lane id="172977260#1_1" index="1" disallow="tram rail_urban rail rail_electric ship" speed="27.78" length="18.80" shape="1510.38,895.27 1493.31,888.13">
            <param key="origId" value="172977260"/>
        </lane>
    </edge>
    <edge id="172977262" from="4492846232" to="286892932" name="Ira Needles Boulevard" priority="7" type="highway.secondary" spreadType="center" shape="1555.97,949.47 1555.71,942.34 1554.14,937.72 1552.02,931.50 1544.53,918.86">
        <lane id="172977262_0" index="0" disallow="tram rail_urban rail rail_electric ship" speed="16.67" length="16.67" shape="1554.23,945.66 1554.12,942.63 1552.63,938.24 1550.56,932.17 1549.64,930.63">
            <param key="origId" value="172977262"/>
        </lane>
        <lane id="172977262_1" index="1" disallow="tram rail_urban rail rail_electric ship" speed="16.67" length="16.67" shape="1557.43,945.54 1557.30,942.05 1555.65,937.20 1553.48,930.83 1552.40,929.00">
            <param key="origId" value="172977262"/>
        </lane>
    </edge>
    <edge id="172977264" from="1019435766" to="1838091336" name="Highland Road West" priority="7" type="highway.secondary" spreadType="center" shape="1575.44,892.15 1587.35,900.54 1595.81,905.33 1604.38,910.18 1616.11,920.37">
        <lane id="172977264_0" index="0" disallow="tram rail_urban rail rail_electric ship" speed="27.78" length="23.38" shape="1586.13,897.72 1588.21,899.19 1596.60,903.94 1605.31,908.87 1606.33,909.75">
            <param key="origId" value="172977264"/>
        </lane>
        <lane id="172977264_1" index="1" disallow="tram rail_urban rail rail_electric ship" speed="27.78" length="23.38" shape="1584.29,900.34 1586.49,901.89 1595.02,906.72 1603.45,911.49 1604.23,912.17">