<?xml version="1.0" encoding="UTF-8"?>

<!-- generated on 02/26/19 15:46:42 by Eclipse SUMO netedit Version 1.1.0
<configuration xmlns:xsi="http://www.w3.org/2001/XMLSchema-instance" xsi:noNamespaceSchemaLocation="http://sumo.dlr.de/xsd/netconvertConfiguration.xsd">

    <input>
        <sumo-net-file value="C:\Users\sunny\Documents\moe-analyzer\samples\kennedy-sim\net.net.xml"/>
    </input>

    <output>
        <output-file value="C:\Users\sunny\Documents\moe-analyzer\samples\kennedy-sim\net.net.xml"/>
    </output>

    <processing>
        <geometry.max-grade.fix value="false"/>
        <offset.disable-normalization value="true"/>
        <lefthand value="false"/>
    </processing>

    <junctions>
        <no-turnarounds value="true"/>
        <junctions.corner-detail value="0"/>
        <junctions.limit-turn-speed value="-1"/>
        <rectangular-lane-cut value="false"/>
    </junctions>

    <pedestrian>
        <walkingareas value="false"/>
    </pedestrian>

</configuration>
-->

<net version="1.1" xmlns:xsi="http://www.w3.org/2001/XMLSchema-instance" xsi:noNamespaceSchemaLocation="http://sumo.dlr.de/xsd/net_file.xsd">

    <location netOffset="-636850.12,-4843224.62" convBoundary="0.00,3576.24,1978.48,5652.56" origBoundary="-79.299892,43.728826,-79.260829,43.781353" projParameter="+proj=utm +zone=17 +ellps=WGS84 +datum=WGS84 +units=m +no_defs"/>

    <edge id=":1367240504_0" function="internal">
        <lane id=":1367240504_0_0" index="0" disallow="tram rail_urban rail rail_electric ship" speed="27.78" length="2.75" shape="1375.27,4580.25 1375.59,4581.56 1375.68,4582.50 1375.54,4583.43 1375.15,4584.72"/>
        <lane id=":1367240504_0_1" index="1" disallow="tram rail_urban rail rail_electric ship" speed="27.78" length="2.75" shape="1372.18,4581.06 1372.37,4581.84 1372.42,4582.41 1372.33,4582.96 1372.10,4583.74"/>
        <lane id=":1367240504_0_2" index="2" disallow="tram rail_urban rail rail_electric ship" speed="27.78" length="2.75" shape="1369.08,4581.86 1369.14,4582.13 1369.16,4582.31 1369.13,4582.50 1369.06,4582.76"/>
    </edge>
    <edge id=":1367240508_0" function="internal">
        <lane id=":1367240508_0_0" index="0" allow="private emergency authority army vip passenger hov taxi bus coach delivery truck trailer motorcycle evehicle custom1 custom2" speed="25.00" length="23.15" shape="1265.91,4933.47 1264.10,4940.96 1263.60,4947.15 1263.72,4952.23 1263.81,4956.38"/>
    </edge>
    <edge id=":1367240508_1" function="internal">
        <lane id=":1367240508_1_0" index="0" disallow="tram rail_urban rail rail_electric ship" speed="27.78" length="24.06" shape="1259.82,4931.48 1258.70,4938.49 1259.65,4943.55 1260.65,4948.63 1259.71,4955.70"/>
        <lane id=":1367240508_1_1" index="1" disallow="tram rail_urban rail rail_electric ship" speed="27.78" length="24.06" shape="1256.78,4930.49 1255.65,4937.52 1256.59,4942.60 1257.59,4947.70 1256.64,4954.79"/>
        <lane id=":1367240508_1_2" index="2" disallow="tram rail_urban rail rail_electric ship" speed="27.78" length="24.06" shape="1256.78,4930.49 1255.21,4937.29 1255.06,4942.15 1254.97,4947.03 1253.57,4953.88"/>
        <lane id=":1367240508_1_3" index="3" disallow="tram rail_urban rail rail_electric ship" speed="27.78" length="24.06" shape="1256.78,4930.49 1250.50,4952.97"/>
    </edge>
    <edge id=":1367509310_0" function="internal">
        <lane id=":1367509310_0_0" index="0" disallow="tram rail_urban rail rail_electric ship" speed="19.45" length="6.89" shape="1160.81,5249.26 1159.58,5249.15 1158.46,5249.86 1157.46,5251.39 1156.58,5253.73"/>
    </edge>
    <edge id=":1367509310_1" function="internal">
        <lane id=":1367509310_1_0" index="0" allow="private emergency authority army vip passenger hov taxi bus coach delivery truck trailer motorcycle evehicle custom1 custom2" speed="22.22" length="13.93" shape="1160.81,5249.26 1156.88,5247.66 1154.22,5246.47 1151.64,5245.14 1147.91,5243.12"/>
        <lane id=":1367509310_1_1" index="1" allow="private emergency authority army vip passenger hov taxi bus coach delivery truck trailer motorcycle evehicle custom1 custom2" speed="22.22" length="13.93" shape="1161.99,5246.28 1158.16,5244.73 1155.58,5243.57 1153.06,5242.28 1149.43,5240.31"/>
        <lane id=":1367509310_1_2" index="2" allow="private emergency authority army vip passenger hov taxi bus coach delivery truck trailer motorcycle evehicle custom1 custom2" speed="22.22" length="13.93" shape="1163.18,5243.31 1159.45,5241.80 1156.94,5240.67 1154.49,5239.41 1150.96,5237.49"/>
    </edge>
    <edge id=":1367509310_4" function="internal">
        <lane id=":1367509310_4_0" index="0" disallow="tram rail_urban rail rail_electric ship" speed="16.67" length="19.77" shape="1162.32,5235.83 1160.02,5241.01 1157.78,5244.28 1155.61,5247.57 1153.51,5252.82"/>
        <lane id=":1367509310_4_1" index="1" disallow="tram rail_urban rail rail_electric ship" speed="16.67" length="19.77" shape="1162.32,5235.83 1159.50,5240.98 1156.24,5243.82 1153.05,5246.68 1150.45,5251.90"/>
    </edge>
    <edge id=":1367509310_6" function="internal">
        <lane id=":1367509310_6_0" index="0" allow="private emergency authority army vip passenger hov taxi bus coach delivery truck trailer motorcycle evehicle custom1 custom2" speed="19.45" length="13.36" shape="1159.29,5234.80 1157.50,5238.58 1155.26,5240.76 1152.57,5241.33 1149.43,5240.31"/>
    </edge>
    <edge id=":1367509310_7" function="internal">
        <lane id=":1367509310_7_0" index="0" allow="private emergency authority army vip passenger hov taxi bus coach delivery truck trailer motorcycle evehicle custom1 custom2" speed="19.45" length="7.58" shape="1156.26,5233.76 1155.22,5236.09 1153.98,5237.48 1152.56,5237.95 1150.96,5237.49"/>
    </edge>
    <edge id=":1367509311_0" function="internal">
        <lane id=":1367509311_0_0" index="0" allow="private emergency authority army vip passenger hov taxi bus coach delivery truck trailer motorcycle evehicle custom1 custom2" speed="19.45" length="13.99" shape="1123.78,5281.67 1124.88,5277.43 1125.10,5274.14 1125.03,5271.15 1125.29,5267.83"/>
    </edge>
    <edge id=":1367509311_1" function="internal">
        <lane id=":1367509311_1_0" index="0" disallow="tram rail_urban rail rail_electric ship" speed="16.67" length="14.68" shape="1126.80,5282.74 1127.92,5278.59 1128.19,5275.62 1128.41,5272.64 1129.41,5268.45"/>
        <lane id=":1367509311_1_1" index="1" disallow="tram rail_urban rail rail_electric ship" speed="16.67" length="14.68" shape="1129.81,5283.81 1130.94,5279.63 1131.22,5276.64 1131.45,5273.64 1132.46,5269.42"/>
        <lane id=":1367509311_1_2" index="2" disallow="tram rail_urban rail rail_electric ship" speed="16.67" length="14.68" shape="1132.83,5284.88 1133.97,5280.67 1134.25,5277.66 1134.49,5274.64 1135.51,5270.40"/>
    </edge>
    <edge id=":1367509312_0" function="internal">
        <lane id=":1367509312_0_0" index="0" disallow="tram rail_urban rail rail_electric ship" speed="16.67" length="8.18" shape="1102.85,5336.24 1103.82,5334.00 1104.85,5332.63 1105.91,5331.26 1106.96,5329.05"/>
        <lane id=":1367509312_0_1" index="1" disallow="tram rail_urban rail rail_electric ship" speed="16.67" length="8.18" shape="1105.89,5337.21 1106.86,5335.00 1107.89,5333.65 1108.93,5332.31 1109.97,5330.12"/>
        <lane id=":1367509312_0_2" index="2" disallow="tram rail_urban rail rail_electric ship" speed="16.67" length="8.18" shape="1108.94,5338.19 1109.90,5336.00 1110.92,5334.67 1111.96,5333.35 1112.99,5331.19"/>
        <lane id=":1367509312_0_3" index="3" disallow="tram rail_urban rail rail_electric ship" speed="16.67" length="8.18" shape="1111.99,5339.16 1112.94,5337.01 1113.95,5335.69 1114.98,5334.39 1116.00,5332.26"/>
    </edge>
    <edge id=":1367509313_0" function="internal">
        <lane id=":1367509313_0_0" index="0" disallow="tram rail_urban rail rail_electric ship" speed="16.67" length="9.70" shape="1134.35,5331.73 1132.81,5333.91 1130.79,5334.74 1128.77,5335.58 1127.25,5337.76"/>
        <lane id=":1367509313_0_1" index="1" disallow="tram rail_urban rail rail_electric ship" speed="16.67" length="9.70" shape="1131.32,5330.70 1129.78,5332.89 1127.76,5333.72 1125.74,5334.56 1124.22,5336.75"/>
    </edge>
    <edge id=":1367509315_0" function="internal">
        <lane id=":1367509315_0_0" index="0" disallow="tram rail_urban rail rail_electric ship" speed="16.67" length="0.30" shape="1124.73,5345.34 1124.63,5345.62"/>
        <lane id=":1367509315_0_1" index="1" disallow="tram rail_urban rail rail_electric ship" speed="16.67" length="0.30" shape="1121.69,5344.33 1121.59,5344.62"/>
    </edge>
    <edge id=":1741679483_0" function="internal">
        <lane id=":1741679483_0_0" index="0" disallow="tram rail_urban rail rail_electric ship" speed="16.67" length="8.56" shape="1151.83,5269.63 1151.59,5272.17 1152.18,5274.00 1152.74,5275.82 1152.42,5278.33"/>
        <lane id=":1741679483_0_1" index="1" disallow="tram rail_urban rail rail_electric ship" speed="16.67" length="8.56" shape="1148.77,5268.72 1148.54,5271.23 1149.13,5273.03 1149.70,5274.82 1149.39,5277.30"/>
        <lane id=":1741679483_0_2" index="2" disallow="tram rail_urban rail rail_electric ship" speed="16.67" length="8.56" shape="1145.70,5267.80 1145.48,5270.28 1146.08,5272.06 1146.66,5273.83 1146.36,5276.28"/>
        <lane id=":1741679483_0_3" index="3" disallow="tram rail_urban rail rail_electric ship" speed="16.67" length="8.56" shape="1145.70,5267.80 1143.33,5275.25"/>
        <lane id=":1741679483_0_4" index="4" disallow="tram rail_urban rail rail_electric ship" speed="16.67" length="8.56" shape="1145.70,5267.80 1144.54,5269.94 1143.05,5271.03 1141.54,5272.11 1140.30,5274.23"/>
    </edge>
    <edge id=":21489777_0" function="internal">
        <lane id=":21489777_0_0" index="0" allow="private emergency authority army vip passenger hov taxi bus coach delivery truck trailer motorcycle evehicle custom1 custom2" speed="27.78" length="0.35" shape="591.61,4856.56 592.04,4856.71"/>
        <lane id=":21489777_0_1" index="1" allow="private emergency authority army vip passenger hov taxi bus coach delivery truck trailer motorcycle evehicle custom1 custom2" speed="27.78" length="0.35" shape="590.60,4859.60 590.93,4859.71"/>
        <lane id=":21489777_0_2" index="2" allow="private emergency authority army vip passenger hov taxi bus coach delivery truck trailer motorcycle evehicle custom1 custom2" speed="27.78" length="0.35" shape="589.60,4862.63 589.83,4862.71"/>
    </edge>
    <edge id=":21489778_0" function="internal">
        <lane id=":21489778_0_0" index="0" allow="private emergency authority army vip passenger hov taxi bus coach delivery truck trailer motorcycle evehicle custom1 custom2" speed="27.78" length="0.29" shape="599.25,4884.71 599.02,4884.63"/>
        <lane id=":21489778_0_1" index="1" allow="private emergency authority army vip passenger hov taxi bus coach delivery truck trailer motorcycle evehicle custom1 custom2" speed="27.78" length="0.29" shape="600.34,4881.70 600.06,4881.60"/>
        <lane id=":21489778_0_2" index="2" allow="private emergency authority army vip passenger hov taxi bus coach delivery truck trailer motorcycle evehicle custom1 custom2" speed="27.78" length="0.29" shape="601.42,4878.69 601.10,4878.58"/>
    </edge>
    <edge id=":21543033_0" function="internal">
        <lane id=":21543033_0_0" index="0" allow="private emergency authority army vip passenger hov taxi bus coach delivery truck trailer motorcycle evehicle custom1 custom2" speed="25.00" length="24.59" shape="1267.36,5068.16 1289.28,5079.29"/>
    </edge>
    <edge id=":21543033_1" function="internal">
        <lane id=":21543033_1_0" index="0" allow="private emergency authority army vip passenger hov taxi bus coach delivery truck trailer motorcycle evehicle custom1 custom2" speed="27.78" length="24.70" shape="1265.89,5071.35 1289.28,5079.29"/>
        <lane id=":21543033_1_1" index="1" allow="private emergency authority army vip passenger hov taxi bus coach delivery truck trailer motorcycle evehicle custom1 custom2" speed="27.78" length="24.70" shape="1264.86,5074.38 1288.25,5082.32"/>
        <lane id=":21543033_1_2" index="2" allow="private emergency authority army vip passenger hov taxi bus coach delivery truck trailer motorcycle evehicle custom1 custom2" speed="27.78" length="24.70" shape="1263.83,5077.41 1287.21,5085.35"/>
    </edge>
    <edge id=":21543038_0" function="internal">
        <lane id=":21543038_0_0" index="0" allow="private emergency authority army vip passenger hov taxi bus coach delivery truck trailer motorcycle evehicle custom1 custom2" speed="27.78" length="0.35" shape="617.43,4845.39 617.86,4845.55"/>
        <lane id=":21543038_0_1" index="1" allow="private emergency authority army vip passenger hov taxi bus coach delivery truck trailer motorcycle evehicle custom1 custom2" speed="27.78" length="0.35" shape="616.41,4848.42 616.73,4848.54"/>
        <lane id=":21543038_0_2" index="2" allow="private emergency authority army vip passenger hov taxi bus coach delivery truck trailer motorcycle evehicle custom1 custom2" speed="27.78" length="0.35" shape="615.38,4851.46 615.61,4851.54"/>
    </edge>
    <edge id=":21543039_0" function="internal">
        <lane id=":21543039_0_0" index="0" allow="private emergency authority army vip passenger hov taxi bus coach delivery truck trailer motorcycle evehicle custom1 custom2" speed="27.78" length="0.29" shape="604.70,4907.63 604.38,4907.52"/>
        <lane id=":21543039_0_1" index="1" allow="private emergency authority army vip passenger hov taxi bus coach delivery truck trailer motorcycle evehicle custom1 custom2" speed="27.78" length="0.29" shape="605.72,4904.60 605.44,4904.50"/>
        <lane id=":21543039_0_2" index="2" allow="private emergency authority army vip passenger hov taxi bus coach delivery truck trailer motorcycle evehicle custom1 custom2" speed="27.78" length="0.29" shape="606.73,4901.56 606.50,4901.48"/>
    </edge>
    <edge id=":2293763784_0" function="internal">
        <lane id=":2293763784_0_0" index="0" disallow="tram rail_urban rail rail_electric ship" speed="27.78" length="9.11" shape="1273.26,4841.02 1273.27,4838.35 1272.10,4836.50 1270.93,4834.65 1270.94,4831.98"/>
        <lane id=":2293763784_0_1" index="1" disallow="tram rail_urban rail rail_electric ship" speed="27.78" length="9.11" shape="1276.33,4841.93 1276.34,4839.26 1275.16,4837.41 1273.99,4835.56 1274.01,4832.89"/>
        <lane id=":2293763784_0_2" index="2" disallow="tram rail_urban rail rail_electric ship" speed="27.78" length="9.11" shape="1276.33,4841.93 1276.77,4839.56 1276.70,4837.87 1276.63,4836.17 1277.07,4833.81"/>
        <lane id=":2293763784_0_3" index="3" disallow="tram rail_urban rail rail_electric ship" speed="27.78" length="9.11" shape="1276.33,4841.93 1277.25,4839.70 1278.23,4838.32 1279.22,4836.95 1280.14,4834.72"/>
        <lane id=":2293763784_0_4" index="4" disallow="tram rail_urban rail rail_electric ship" speed="27.78" length="9.11" shape="1276.33,4841.93 1277.78,4839.69 1279.76,4838.78 1281.76,4837.88 1283.21,4835.64"/>
    </edge>
    <edge id=":2293764148_0" function="internal">
        <lane id=":2293764148_0_0" index="0" disallow="tram rail_urban rail rail_electric ship" speed="27.78" length="8.21" shape="1347.72,4669.42 1347.21,4671.78 1347.24,4673.48 1347.27,4675.17 1346.76,4677.53"/>
        <lane id=":2293764148_0_1" index="1" disallow="tram rail_urban rail rail_electric ship" speed="27.78" length="8.21" shape="1347.72,4669.42 1346.74,4671.63 1345.72,4672.98 1344.70,4674.34 1343.72,4676.54"/>
        <lane id=":2293764148_0_2" index="2" disallow="tram rail_urban rail rail_electric ship" speed="27.78" length="8.21" shape="1344.67,4668.43 1343.70,4670.64 1342.68,4671.99 1341.66,4673.34 1340.68,4675.54"/>
        <lane id=":2293764148_0_3" index="3" disallow="tram rail_urban rail rail_electric ship" speed="27.78" length="8.21" shape="1341.63,4667.45 1340.65,4669.65 1339.64,4671.00 1338.62,4672.35 1337.63,4674.55"/>
    </edge>
    <edge id=":2305844760_0" function="internal">
        <lane id=":2305844760_0_0" index="0" disallow="tram rail_urban rail rail_electric ship" speed="16.67" length="8.65" shape="1087.61,5394.66 1087.88,5392.16 1087.30,5390.36 1086.71,5388.56 1086.98,5386.07"/>
        <lane id=":2305844760_0_1" index="1" disallow="tram rail_urban rail rail_electric ship" speed="16.67" length="8.65" shape="1090.65,5395.63 1090.93,5393.13 1090.35,5391.33 1089.76,5389.54 1090.03,5387.04"/>
        <lane id=":2305844760_0_2" index="2" disallow="tram rail_urban rail rail_electric ship" speed="16.67" length="8.65" shape="1093.70,5396.60 1093.97,5394.11 1093.39,5392.31 1092.81,5390.51 1093.08,5388.01"/>
        <lane id=":2305844760_0_3" index="3" disallow="tram rail_urban rail rail_electric ship" speed="16.67" length="8.65" shape="1093.70,5396.60 1096.13,5388.98"/>
        <lane id=":2305844760_0_4" index="4" disallow="tram rail_urban rail rail_electric ship" speed="16.67" length="8.65" shape="1093.70,5396.60 1094.93,5394.41 1096.44,5393.28 1097.96,5392.14 1099.18,5389.95"/>
    </edge>
    <edge id=":2504181465_0" function="internal">
        <lane id=":2504181465_0_0" index="0" allow="private emergency authority army vip passenger hov taxi bus coach delivery truck trailer motorcycle evehicle custom1 custom2" speed="22.22" length="0.17" shape="1161.19,5249.40 1160.96,5249.31"/>
        <lane id=":2504181465_0_1" index="1" allow="private emergency authority army vip passenger hov taxi bus coach delivery truck trailer motorcycle evehicle custom1 custom2" speed="22.22" length="0.17" shape="1162.29,5246.39 1162.14,5246.34"/>
        <lane id=":2504181465_0_2" index="2" allow="private emergency authority army vip passenger hov taxi bus coach delivery truck trailer motorcycle evehicle custom1 custom2" speed="22.22" length="0.17" shape="1163.38,5243.39 1163.32,5243.37"/>
    </edge>
    <edge id=":257893173_0" function="internal">
        <lane id=":257893173_0_0" index="0" allow="private emergency authority army vip passenger hov taxi bus coach delivery truck trailer motorcycle evehicle custom1 custom2" speed="27.78" length="0.30" shape="648.83,4922.38 648.52,4922.28"/>
        <lane id=":257893173_0_1" index="1" allow="private emergency authority army vip passenger hov taxi bus coach delivery truck trailer motorcycle evehicle custom1 custom2" speed="27.78" length="0.30" shape="649.82,4919.34 649.54,4919.24"/>
        <lane id=":257893173_0_2" index="2" allow="private emergency authority army vip passenger hov taxi bus coach delivery truck trailer motorcycle evehicle custom1 custom2" speed="27.78" length="0.30" shape="650.81,4916.29 650.55,4916.21"/>
    </edge>
    <edge id=":257893174_0" function="internal">
        <lane id=":257893174_0_0" index="0" allow="private emergency authority army vip passenger hov taxi bus coach delivery truck trailer motorcycle evehicle custom1 custom2" speed="27.78" length="0.29" shape="644.05,4900.86 643.74,4900.75"/>
        <lane id=":257893174_0_1" index="1" allow="private emergency authority army vip passenger hov taxi bus coach delivery truck trailer motorcycle evehicle custom1 custom2" speed="27.78" length="0.29" shape="645.10,4897.84 644.82,4897.74"/>
        <lane id=":257893174_0_2" index="2" allow="private emergency authority army vip passenger hov taxi bus coach delivery truck trailer motorcycle evehicle custom1 custom2" speed="27.78" length="0.29" shape="646.14,4894.81 645.91,4894.73"/>
    </edge>
    <edge id=":257893177_0" function="internal">
        <lane id=":257893177_0_0" index="0" allow="private emergency authority army vip passenger hov taxi bus coach delivery truck trailer motorcycle evehicle custom1 custom2" speed="27.78" length="0.28" shape="627.40,4869.73 627.61,4869.80"/>
        <lane id=":257893177_0_1" index="1" allow="private emergency authority army vip passenger hov taxi bus coach delivery truck trailer motorcycle evehicle custom1 custom2" speed="27.78" length="0.28" shape="626.30,4872.73 626.56,4872.83"/>
        <lane id=":257893177_0_2" index="2" allow="private emergency authority army vip passenger hov taxi bus coach delivery truck trailer motorcycle evehicle custom1 custom2" speed="27.78" length="0.28" shape="625.19,4875.73 625.52,4875.85"/>
    </edge>
    <edge id=":257893179_0" function="internal">
        <lane id=":257893179_0_0" index="0" allow="private emergency authority army vip passenger hov taxi bus coach delivery truck trailer motorcycle evehicle custom1 custom2" speed="27.78" length="0.29" shape="578.38,4832.20 578.61,4832.28"/>
        <lane id=":257893179_0_1" index="1" allow="private emergency authority army vip passenger hov taxi bus coach delivery truck trailer motorcycle evehicle custom1 custom2" speed="27.78" length="0.29" shape="577.31,4835.22 577.59,4835.32"/>
        <lane id=":257893179_0_2" index="2" allow="private emergency authority army vip passenger hov taxi bus coach delivery truck trailer motorcycle evehicle custom1 custom2" speed="27.78" length="0.29" shape="576.25,4838.24 576.56,4838.35"/>
    </edge>
    <edge id=":257893241_0" function="internal">
        <lane id=":257893241_0_0" index="0" disallow="tram rail_urban rail rail_electric ship" speed="22.23" length="8.60" shape="1237.64,5030.37 1236.47,5032.54 1234.97,5033.63 1233.41,5034.70 1232.05,5036.81"/>
        <lane id=":257893241_0_1" index="1" disallow="tram rail_urban rail rail_electric ship" speed="22.23" length="8.60" shape="1234.57,5029.46 1233.43,5031.56 1231.94,5032.60 1230.40,5033.61 1229.07,5035.65"/>
    </edge>
    <edge id=":257893245_0" function="internal">
        <lane id=":257893245_0_0" index="0" disallow="tram rail_urban rail rail_electric ship" speed="16.67" length="8.47" shape="1177.83,5129.33 1179.12,5127.31 1180.65,5126.31 1182.12,5125.29 1183.26,5123.22"/>
        <lane id=":257893245_0_1" index="1" disallow="tram rail_urban rail rail_electric ship" speed="16.67" length="8.47" shape="1180.83,5130.45 1182.14,5128.38 1183.68,5127.33 1185.17,5126.26 1186.33,5124.13"/>
    </edge>
    <edge id=":257893270_0" function="internal">
        <lane id=":257893270_0_0" index="0" allow="private emergency authority army vip passenger hov taxi bus coach delivery truck trailer motorcycle evehicle custom1 custom2" speed="27.78" length="0.30" shape="1231.50,5059.65 1231.75,5059.74"/>
        <lane id=":257893270_0_1" index="1" allow="private emergency authority army vip passenger hov taxi bus coach delivery truck trailer motorcycle evehicle custom1 custom2" speed="27.78" length="0.30" shape="1230.44,5062.67 1230.72,5062.77"/>
        <lane id=":257893270_0_2" index="2" allow="private emergency authority army vip passenger hov taxi bus coach delivery truck trailer motorcycle evehicle custom1 custom2" speed="27.78" length="0.30" shape="1229.38,5065.69 1229.69,5065.80"/>
    </edge>
    <edge id=":257893271_0" function="internal">
        <lane id=":257893271_0_0" index="0" allow="private emergency authority army vip passenger hov taxi bus coach delivery truck trailer motorcycle evehicle custom1 custom2" speed="27.78" length="0.30" shape="1198.06,5047.93 1198.36,5048.04"/>
        <lane id=":257893271_0_1" index="1" allow="private emergency authority army vip passenger hov taxi bus coach delivery truck trailer motorcycle evehicle custom1 custom2" speed="27.78" length="0.30" shape="1197.02,5050.96 1197.30,5051.06"/>
        <lane id=":257893271_0_2" index="2" allow="private emergency authority army vip passenger hov taxi bus coach delivery truck trailer motorcycle evehicle custom1 custom2" speed="27.78" length="0.30" shape="1195.98,5053.99 1196.24,5054.08"/>
    </edge>
    <edge id=":257893272_0" function="internal">
        <lane id=":257893272_0_0" index="0" allow="private emergency authority army vip passenger hov taxi bus coach delivery truck trailer motorcycle evehicle custom1 custom2" speed="27.78" length="0.29" shape="1190.63,5065.30 1190.88,5065.38"/>
        <lane id=":257893272_0_1" index="1" allow="private emergency authority army vip passenger hov taxi bus coach delivery truck trailer motorcycle evehicle custom1 custom2" speed="27.78" length="0.29" shape="1189.58,5068.32 1189.86,5068.42"/>
        <lane id=":257893272_0_2" index="2" allow="private emergency authority army vip passenger hov taxi bus coach delivery truck trailer motorcycle evehicle custom1 custom2" speed="27.78" length="0.29" shape="1188.53,5071.34 1188.84,5071.45"/>
    </edge>
    <edge id=":257893274_0" function="internal">
        <lane id=":257893274_0_0" index="0" allow="private emergency authority army vip passenger hov taxi bus coach delivery truck trailer motorcycle evehicle custom1 custom2" speed="27.78" length="0.30" shape="1225.67,5077.08 1225.96,5077.18"/>
        <lane id=":257893274_0_1" index="1" allow="private emergency authority army vip passenger hov taxi bus coach delivery truck trailer motorcycle evehicle custom1 custom2" speed="27.78" length="0.30" shape="1224.65,5080.11 1224.93,5080.21"/>
        <lane id=":257893274_0_2" index="2" allow="private emergency authority army vip passenger hov taxi bus coach delivery truck trailer motorcycle evehicle custom1 custom2" speed="27.78" length="0.30" shape="1223.63,5083.15 1223.90,5083.24"/>
    </edge>
    <edge id=":257893286_0" function="internal">
        <lane id=":257893286_0_0" index="0" allow="private emergency authority army vip passenger hov taxi bus coach delivery truck trailer motorcycle evehicle custom1 custom2" speed="27.78" length="0.28" shape="1186.72,5088.12 1186.51,5088.05"/>
        <lane id=":257893286_0_1" index="1" allow="private emergency authority army vip passenger hov taxi bus coach delivery truck trailer motorcycle evehicle custom1 custom2" speed="27.78" length="0.28" shape="1187.81,5085.12 1187.55,5085.02"/>
        <lane id=":257893286_0_2" index="2" allow="private emergency authority army vip passenger hov taxi bus coach delivery truck trailer motorcycle evehicle custom1 custom2" speed="27.78" length="0.28" shape="1188.91,5082.11 1188.58,5082.00"/>
    </edge>
    <edge id=":257893287_0" function="internal">
        <lane id=":257893287_0_0" index="0" allow="private emergency authority army vip passenger hov taxi bus coach delivery truck trailer motorcycle evehicle custom1 custom2" speed="27.78" length="0.27" shape="1219.10,5099.92 1218.77,5099.80"/>
        <lane id=":257893287_0_1" index="1" allow="private emergency authority army vip passenger hov taxi bus coach delivery truck trailer motorcycle evehicle custom1 custom2" speed="27.78" length="0.27" shape="1220.12,5096.88 1219.86,5096.79"/>
        <lane id=":257893287_0_2" index="2" allow="private emergency authority army vip passenger hov taxi bus coach delivery truck trailer motorcycle evehicle custom1 custom2" speed="27.78" length="0.27" shape="1221.14,5093.85 1220.96,5093.79"/>
    </edge>
    <edge id=":257893288_0" function="internal">
        <lane id=":257893288_0_0" index="0" allow="private emergency authority army vip passenger hov taxi bus coach delivery truck trailer motorcycle evehicle custom1 custom2" speed="27.78" length="0.30" shape="1215.78,5116.03 1215.48,5115.93"/>
        <lane id=":257893288_0_1" index="1" allow="private emergency authority army vip passenger hov taxi bus coach delivery truck trailer motorcycle evehicle custom1 custom2" speed="27.78" length="0.30" shape="1216.82,5113.01 1216.54,5112.91"/>
        <lane id=":257893288_0_2" index="2" allow="private emergency authority army vip passenger hov taxi bus coach delivery truck trailer motorcycle evehicle custom1 custom2" speed="27.78" length="0.30" shape="1217.86,5109.98 1217.60,5109.89"/>
    </edge>
    <edge id=":257893289_0" function="internal">
        <lane id=":257893289_0_0" index="0" allow="private emergency authority army vip passenger hov taxi bus coach delivery truck trailer motorcycle evehicle custom1 custom2" speed="27.78" length="0.46" shape="1181.21,5103.94 1181.17,5103.92 1181.14,5103.91 1181.11,5103.90 1181.06,5103.89"/>
        <lane id=":257893289_0_1" index="1" allow="private emergency authority army vip passenger hov taxi bus coach delivery truck trailer motorcycle evehicle custom1 custom2" speed="27.78" length="0.46" shape="1182.27,5100.92 1182.14,5100.87 1182.05,5100.84 1181.96,5100.82 1181.83,5100.79"/>
        <lane id=":257893289_0_2" index="2" allow="private emergency authority army vip passenger hov taxi bus coach delivery truck trailer motorcycle evehicle custom1 custom2" speed="27.78" length="0.46" shape="1183.32,5097.90 1183.11,5097.82 1182.96,5097.77 1182.81,5097.73 1182.59,5097.68"/>
    </edge>
    <edge id=":257893295_0" function="internal">
        <lane id=":257893295_0_0" index="0" allow="private emergency authority army vip passenger hov taxi bus coach delivery truck trailer motorcycle evehicle custom1 custom2" speed="22.22" length="0.30" shape="1177.66,5109.12 1177.38,5109.00"/>
    </edge>
    <edge id=":257893333_0" function="internal">
        <lane id=":257893333_0_0" index="0" allow="private emergency authority army vip passenger hov taxi bus coach delivery truck trailer motorcycle evehicle custom1 custom2" speed="22.22" length="0.28" shape="1213.41,5123.76 1213.15,5123.65"/>
    </edge>
    <edge id=":257893455_0" function="internal">
        <lane id=":257893455_0_0" index="0" allow="private emergency authority army vip passenger hov taxi bus coach delivery truck trailer motorcycle evehicle custom1 custom2" speed="22.22" length="0.10" shape="1198.58,5040.82 1198.58,5040.82"/>
    </edge>
    <edge id=":3044761901_0" function="internal">
        <lane id=":3044761901_0_0" index="0" disallow="tram rail_urban rail rail_electric ship" speed="16.67" length="0.30" shape="1110.34,5319.53 1110.44,5319.25"/>
        <lane id=":3044761901_0_1" index="1" disallow="tram rail_urban rail rail_electric ship" speed="16.67" length="0.30" shape="1113.35,5320.61 1113.45,5320.32"/>